REMARK SMILES CCCCc1[nH+]c2cccnc2n1Cc1ccc(-c2ccccc2-c2nnn[nH]2)cc1
REMARK SMILES IDX 6 1 7 2 5 3 12 4 8 5 13 6 11 7 9 8 10 9 4 14 3 17 2 20 1 23
REMARK SMILES IDX 14 27 15 30 16 31 31 32 17 33 30 35 18 37 19 40 24 41 20 42
REMARK SMILES IDX 23 43 21 44 22 46 25 50 26 51 29 52 27 53 28 54
REMARK H PARENT 6 10 8 11 9 12 10 13 4 15 4 16 3 18 3 19 2 21 2 22 1 24 1 25
REMARK H PARENT 1 26 14 28 14 29 16 34 31 36 17 38 30 39 20 45 23 47 21 48
REMARK H PARENT 22 49 29 55
REMARK Flexibility Score: inf
ROOT
ATOM      1  N   UNL     1      -2.159  -0.719  -0.080  1.00  0.00    -0.239 N 
ATOM      2  C   UNL     1      -2.530   0.531  -0.544  1.00  0.00     0.192 A 
ATOM      3  C   UNL     1      -0.797  -0.868  -0.193  1.00  0.00     0.256 A 
ATOM      4  C   UNL     1      -1.354   1.170  -0.968  1.00  0.00     0.268 A 
ATOM      5  C   UNL     1      -3.760   1.193  -0.643  1.00  0.00    -0.007 A 
ATOM      6  N   UNL     1      -0.289   0.288  -0.765  1.00  0.00    -0.207 N 
ATOM      7  N   UNL     1      -1.293   2.408  -1.477  1.00  0.00    -0.214 NA
ATOM      8  C   UNL     1      -3.716   2.488  -1.171  1.00  0.00    -0.039 A 
ATOM      9  C   UNL     1      -2.493   3.044  -1.565  1.00  0.00     0.032 A 
ATOM     10  H   UNL     1      -2.754  -1.438   0.307  1.00  0.00     0.312 HD
ATOM     11  H   UNL     1      -4.690   0.741  -0.328  1.00  0.00     0.067 H 
ATOM     12  H   UNL     1      -4.626   3.061  -1.275  1.00  0.00     0.064 H 
ATOM     13  H   UNL     1      -2.463   4.045  -1.971  1.00  0.00     0.084 H 
ENDROOT
BRANCH   3  14
ATOM     14  C   UNL     1      -0.038  -2.104   0.263  1.00  0.00     0.049 C 
ATOM     15  H   UNL     1       1.023  -2.042   0.026  1.00  0.00     0.040 H 
ATOM     16  H   UNL     1      -0.399  -2.975  -0.285  1.00  0.00     0.040 H 
BRANCH  14  17
ATOM     17  C   UNL     1      -0.192  -2.362   1.774  1.00  0.00    -0.042 C 
ATOM     18  H   UNL     1      -1.244  -2.520   2.013  1.00  0.00     0.027 H 
ATOM     19  H   UNL     1       0.117  -1.474   2.329  1.00  0.00     0.027 H 
BRANCH  17  20
ATOM     20  C   UNL     1       0.625  -3.571   2.262  1.00  0.00    -0.056 C 
ATOM     21  H   UNL     1       1.680  -3.420   2.026  1.00  0.00     0.026 H 
ATOM     22  H   UNL     1       0.317  -4.466   1.720  1.00  0.00     0.026 H 
BRANCH  20  23
ATOM     23  C   UNL     1       0.480  -3.820   3.769  1.00  0.00    -0.065 C 
ATOM     24  H   UNL     1       1.074  -4.680   4.080  1.00  0.00     0.023 H 
ATOM     25  H   UNL     1      -0.557  -4.019   4.041  1.00  0.00     0.023 H 
ATOM     26  H   UNL     1       0.819  -2.960   4.348  1.00  0.00     0.023 H 
ENDBRANCH  20  23
ENDBRANCH  17  20
ENDBRANCH  14  17
ENDBRANCH   3  14
BRANCH   6  27
ATOM     27  C   UNL     1       1.118   0.586  -1.038  1.00  0.00     0.118 C 
ATOM     28  H   UNL     1       1.179   1.026  -2.035  1.00  0.00     0.081 H 
ATOM     29  H   UNL     1       1.695  -0.335  -1.099  1.00  0.00     0.081 H 
BRANCH  27  30
ATOM     30  C   UNL     1       1.740   1.518  -0.006  1.00  0.00    -0.006 A 
ATOM     31  C   UNL     1       2.044   2.837  -0.344  1.00  0.00    -0.054 A 
ATOM     32  C   UNL     1       1.999   1.053   1.284  1.00  0.00    -0.054 A 
ATOM     33  C   UNL     1       2.605   3.687   0.605  1.00  0.00    -0.054 A 
ATOM     34  H   UNL     1       1.846   3.209  -1.339  1.00  0.00     0.063 H 
ATOM     35  C   UNL     1       2.554   1.907   2.232  1.00  0.00    -0.054 A 
ATOM     36  H   UNL     1       1.771   0.033   1.555  1.00  0.00     0.063 H 
ATOM     37  C   UNL     1       2.871   3.229   1.901  1.00  0.00    -0.018 A 
ATOM     38  H   UNL     1       2.838   4.705   0.329  1.00  0.00     0.063 H 
ATOM     39  H   UNL     1       2.743   1.535   3.229  1.00  0.00     0.063 H 
BRANCH  37  40
ATOM     40  C   UNL     1       3.464   4.147   2.917  1.00  0.00    -0.007 A 
ATOM     41  C   UNL     1       4.632   3.832   3.649  1.00  0.00     0.028 A 
ATOM     42  C   UNL     1       2.819   5.366   3.171  1.00  0.00    -0.054 A 
ATOM     43  C   UNL     1       5.099   4.727   4.622  1.00  0.00    -0.051 A 
ATOM     44  C   UNL     1       3.298   6.250   4.135  1.00  0.00    -0.062 A 
ATOM     45  H   UNL     1       1.924   5.630   2.625  1.00  0.00     0.063 H 
ATOM     46  C   UNL     1       4.437   5.928   4.864  1.00  0.00    -0.061 A 
ATOM     47  H   UNL     1       5.992   4.504   5.188  1.00  0.00     0.063 H 
ATOM     48  H   UNL     1       2.784   7.182   4.318  1.00  0.00     0.062 H 
ATOM     49  H   UNL     1       4.811   6.610   5.613  1.00  0.00     0.062 H 
BRANCH  41  50
ATOM     50  C   UNL     1       5.444   2.592   3.433  1.00  0.00     0.180 A 
ATOM     51  N   UNL     1       5.758   2.065   2.272  1.00  0.00    -0.109 NA
ATOM     52  N   UNL     1       5.987   1.825   4.435  1.00  0.00    -0.239 N 
ATOM     53  N   UNL     1       6.509   0.927   2.562  1.00  0.00    -0.024 NA
ATOM     54  N   UNL     1       6.649   0.784   3.928  1.00  0.00    -0.048 NA
ATOM     55  H   UNL     1       5.904   1.996   5.427  1.00  0.00     0.194 HD
ENDBRANCH  41  50
ENDBRANCH  37  40
ENDBRANCH  27  30
ENDBRANCH   6  27
TORSDOF 8
