REMARK SMILES CCCCc1nc2cccnc2n1Cc1ccc(-c2ccccc2-c2nnn[n-]2)cc1
REMARK SMILES IDX 11 1 12 2 10 3 13 4 7 5 9 6 5 7 6 8 8 9 14 13 15 16 16 17
REMARK SMILES IDX 31 18 17 19 30 21 18 23 19 26 24 27 20 28 23 29 21 30 22 32
REMARK SMILES IDX 25 36 26 37 29 38 27 39 28 40 4 41 3 44 2 47 1 50
REMARK H PARENT 10 10 9 11 8 12 14 14 14 15 16 20 31 22 17 24 30 25 20 31
REMARK H PARENT 23 33 21 34 22 35 4 42 4 43 3 45 3 46 2 48 2 49 1 51 1 52 1 53
REMARK Flexibility Score: inf
ROOT
ATOM      1  N   UNL     1      -2.011   2.495   1.609  1.00  0.00    -0.237 NA
ATOM      2  C   UNL     1      -1.831   1.254   1.140  1.00  0.00     0.160 A 
ATOM      3  C   UNL     1      -3.310   2.905   1.633  1.00  0.00     0.029 A 
ATOM      4  N   UNL     1      -0.659   0.539   0.984  1.00  0.00    -0.308 N 
ATOM      5  C   UNL     1      -2.850   0.385   0.689  1.00  0.00     0.108 A 
ATOM      6  C   UNL     1      -4.398   2.130   1.218  1.00  0.00    -0.041 A 
ATOM      7  C   UNL     1      -1.026  -0.679   0.428  1.00  0.00     0.111 A 
ATOM      8  N   UNL     1      -2.325  -0.803   0.263  1.00  0.00    -0.231 NA
ATOM      9  C   UNL     1      -4.179   0.838   0.732  1.00  0.00    -0.031 A 
ATOM     10  H   UNL     1      -3.475   3.905   2.006  1.00  0.00     0.084 H 
ATOM     11  H   UNL     1      -5.400   2.530   1.268  1.00  0.00     0.064 H 
ATOM     12  H   UNL     1      -4.999   0.217   0.400  1.00  0.00     0.065 H 
ENDROOT
BRANCH   4  13
ATOM     13  C   UNL     1       0.699   1.014   1.256  1.00  0.00     0.051 C 
ATOM     14  H   UNL     1       1.309   0.169   1.577  1.00  0.00     0.055 H 
ATOM     15  H   UNL     1       0.639   1.684   2.115  1.00  0.00     0.055 H 
BRANCH  13  16
ATOM     16  C   UNL     1       1.396   1.758   0.116  1.00  0.00    -0.028 A 
ATOM     17  C   UNL     1       2.591   2.424   0.392  1.00  0.00    -0.057 A 
ATOM     18  C   UNL     1       0.886   1.781  -1.187  1.00  0.00    -0.057 A 
ATOM     19  C   UNL     1       3.262   3.111  -0.615  1.00  0.00    -0.054 A 
ATOM     20  H   UNL     1       3.001   2.414   1.392  1.00  0.00     0.063 H 
ATOM     21  C   UNL     1       1.562   2.468  -2.191  1.00  0.00    -0.054 A 
ATOM     22  H   UNL     1      -0.031   1.270  -1.439  1.00  0.00     0.063 H 
ATOM     23  C   UNL     1       2.754   3.151  -1.920  1.00  0.00    -0.018 A 
ATOM     24  H   UNL     1       4.178   3.628  -0.369  1.00  0.00     0.063 H 
ATOM     25  H   UNL     1       1.151   2.462  -3.190  1.00  0.00     0.063 H 
BRANCH  23  26
ATOM     26  C   UNL     1       3.482   3.895  -2.998  1.00  0.00    -0.010 A 
ATOM     27  C   UNL     1       2.838   4.731  -3.948  1.00  0.00    -0.003 A 
ATOM     28  C   UNL     1       4.879   3.764  -3.065  1.00  0.00    -0.054 A 
ATOM     29  C   UNL     1       3.602   5.327  -4.964  1.00  0.00    -0.053 A 
ATOM     30  C   UNL     1       5.622   4.380  -4.068  1.00  0.00    -0.062 A 
ATOM     31  H   UNL     1       5.402   3.146  -2.349  1.00  0.00     0.063 H 
ATOM     32  C   UNL     1       4.981   5.153  -5.027  1.00  0.00    -0.062 A 
ATOM     33  H   UNL     1       3.131   5.961  -5.702  1.00  0.00     0.063 H 
ATOM     34  H   UNL     1       6.694   4.249  -4.106  1.00  0.00     0.062 H 
ATOM     35  H   UNL     1       5.552   5.630  -5.809  1.00  0.00     0.062 H 
BRANCH  27  36
ATOM     36  C   UNL     1       1.372   5.081  -3.928  1.00  0.00     0.040 A 
ATOM     37  N   UNL     1       0.617   5.077  -5.006  1.00  0.00    -0.330 NA
ATOM     38  N   UNL     1       0.740   5.459  -2.838  1.00  0.00    -0.270 NA
ATOM     39  N   UNL     1      -0.633   5.458  -4.577  1.00  0.00    -0.257 NA
ATOM     40  N   UNL     1      -0.557   5.693  -3.230  1.00  0.00    -0.190 NA
ENDBRANCH  27  36
ENDBRANCH  23  26
ENDBRANCH  13  16
ENDBRANCH   4  13
BRANCH   7  41
ATOM     41  C   UNL     1      -0.003  -1.746   0.055  1.00  0.00     0.006 C 
ATOM     42  H   UNL     1       0.522  -2.078   0.952  1.00  0.00     0.035 H 
ATOM     43  H   UNL     1       0.761  -1.306  -0.588  1.00  0.00     0.035 H 
BRANCH  41  44
ATOM     44  C   UNL     1      -0.590  -2.981  -0.661  1.00  0.00    -0.046 C 
ATOM     45  H   UNL     1      -1.116  -2.661  -1.562  1.00  0.00     0.027 H 
ATOM     46  H   UNL     1      -1.335  -3.454  -0.020  1.00  0.00     0.027 H 
BRANCH  44  47
ATOM     47  C   UNL     1       0.481  -4.018  -1.042  1.00  0.00    -0.056 C 
ATOM     48  H   UNL     1       1.012  -4.343  -0.146  1.00  0.00     0.026 H 
ATOM     49  H   UNL     1       1.227  -3.553  -1.688  1.00  0.00     0.026 H 
BRANCH  47  50
ATOM     50  C   UNL     1      -0.102  -5.247  -1.753  1.00  0.00    -0.065 C 
ATOM     51  H   UNL     1       0.683  -5.957  -2.010  1.00  0.00     0.023 H 
ATOM     52  H   UNL     1      -0.609  -4.965  -2.677  1.00  0.00     0.023 H 
ATOM     53  H   UNL     1      -0.823  -5.765  -1.120  1.00  0.00     0.023 H 
ENDBRANCH  47  50
ENDBRANCH  44  47
ENDBRANCH  41  44
ENDBRANCH   7  41
TORSDOF 8
