REMARK SMILES O=C([O-])Cc1cccc2ccccc12
REMARK SMILES IDX 4 1 2 4 1 5 3 6 5 7 14 8 6 9 9 10 13 11 7 12 8 14 10 15
REMARK SMILES IDX 12 16 11 20
REMARK H PARENT 4 2 4 3 6 13 13 17 7 18 8 19 10 21 12 22 11 23
REMARK Flexibility Score: inf
ROOT
ATOM      1  C   UNL     1       1.430   0.054  -0.022  1.00  0.00     0.013 C 
ATOM      2  H   UNL     1       1.645   0.934   0.587  1.00  0.00     0.038 H 
ATOM      3  H   UNL     1       2.006   0.197  -0.938  1.00  0.00     0.038 H 
ENDROOT
BRANCH   1   4
ATOM      4  C   UNL     1      -0.065  -0.017  -0.417  1.00  0.00     0.046 C 
ATOM      5  O   UNL     1      -0.722   1.043  -0.321  1.00  0.00    -0.550 OA
ATOM      6  O   UNL     1      -0.533  -1.100  -0.841  1.00  0.00    -0.550 OA
ENDBRANCH   1   4
BRANCH   1   7
ATOM      7  C   UNL     1       1.926  -1.197   0.720  1.00  0.00    -0.035 A 
ATOM      8  C   UNL     1       1.617  -1.410   2.105  1.00  0.00    -0.015 A 
ATOM      9  C   UNL     1       2.692  -2.138   0.029  1.00  0.00    -0.058 A 
ATOM     10  C   UNL     1       2.111  -2.593   2.744  1.00  0.00    -0.018 A 
ATOM     11  C   UNL     1       0.843  -0.502   2.885  1.00  0.00    -0.054 A 
ATOM     12  C   UNL     1       3.165  -3.282   0.659  1.00  0.00    -0.061 A 
ATOM     13  H   UNL     1       2.923  -1.984  -1.015  1.00  0.00     0.063 H 
ATOM     14  C   UNL     1       2.884  -3.517   1.999  1.00  0.00    -0.054 A 
ATOM     15  C   UNL     1       1.819  -2.824   4.112  1.00  0.00    -0.054 A 
ATOM     16  C   UNL     1       0.575  -0.760   4.226  1.00  0.00    -0.062 A 
ATOM     17  H   UNL     1       0.449   0.399   2.440  1.00  0.00     0.063 H 
ATOM     18  H   UNL     1       3.754  -3.994   0.102  1.00  0.00     0.062 H 
ATOM     19  H   UNL     1       3.256  -4.410   2.479  1.00  0.00     0.063 H 
ATOM     20  C   UNL     1       1.059  -1.910   4.835  1.00  0.00    -0.062 A 
ATOM     21  H   UNL     1       2.191  -3.716   4.594  1.00  0.00     0.063 H 
ATOM     22  H   UNL     1      -0.016  -0.059   4.798  1.00  0.00     0.062 H 
ATOM     23  H   UNL     1       0.842  -2.096   5.876  1.00  0.00     0.062 H 
ENDBRANCH   1   7
TORSDOF 2
