REMARK SMILES CCCc1c(OCCCCc2nnn[n-]2)ccc(C(C)=O)c1O
REMARK SMILES IDX 7 1 6 4 5 5 18 6 22 7 17 8 4 9 16 10 19 13 21 14 20 15 23 19
REMARK SMILES IDX 3 21 2 24 1 27 8 31 9 34 10 37 11 40 12 41 15 42 13 43 14 44
REMARK H PARENT 7 2 7 3 17 11 16 12 20 16 20 17 20 18 23 20 3 22 3 23 2 25
REMARK H PARENT 2 26 1 28 1 29 1 30 8 32 8 33 9 35 9 36 10 38 10 39
REMARK Flexibility Score: inf
ROOT
ATOM      1  C   UNL     1       1.984  -1.436  -0.144  1.00  0.00     0.088 C 
ATOM      2  H   UNL     1       1.666  -2.032   0.714  1.00  0.00     0.071 H 
ATOM      3  H   UNL     1       1.779  -2.012  -1.048  1.00  0.00     0.071 H 
ENDROOT
BRANCH   1   4
ATOM      4  O   UNL     1       1.288  -0.195  -0.190  1.00  0.00    -0.493 OA
BRANCH   4   5
ATOM      5  C   UNL     1      -0.094  -0.165  -0.178  1.00  0.00     0.126 A 
ATOM      6  C   UNL     1      -2.916   0.023  -0.107  1.00  0.00     0.060 A 
ATOM      7  C   UNL     1      -2.119   1.189  -0.101  1.00  0.00     0.133 A 
ATOM      8  C   UNL     1      -2.276  -1.222  -0.168  1.00  0.00    -0.044 A 
ATOM      9  C   UNL     1      -0.714   1.094  -0.141  1.00  0.00     0.037 A 
ATOM     10  C   UNL     1      -0.890  -1.317  -0.196  1.00  0.00    -0.019 A 
ATOM     11  H   UNL     1      -2.843  -2.142  -0.197  1.00  0.00     0.063 H 
ATOM     12  H   UNL     1      -0.449  -2.301  -0.237  1.00  0.00     0.066 H 
BRANCH   6  13
ATOM     13  C   UNL     1      -4.419   0.066  -0.107  1.00  0.00     0.163 C 
ATOM     14  O   UNL     1      -5.087   1.032  -0.476  1.00  0.00    -0.294 OA
BRANCH  13  15
ATOM     15  C   UNL     1      -5.157  -1.110   0.537  1.00  0.00    -0.001 C 
ATOM     16  H   UNL     1      -6.189  -0.844   0.770  1.00  0.00     0.031 H 
ATOM     17  H   UNL     1      -5.152  -1.976  -0.124  1.00  0.00     0.031 H 
ATOM     18  H   UNL     1      -4.670  -1.391   1.471  1.00  0.00     0.031 H 
ENDBRANCH  13  15
ENDBRANCH   6  13
BRANCH   7  19
ATOM     19  O   UNL     1      -2.694   2.438  -0.029  1.00  0.00    -0.507 OA
ATOM     20  H   UNL     1      -2.045   3.145  -0.024  1.00  0.00     0.293 HD
ENDBRANCH   7  19
BRANCH   9  21
ATOM     21  C   UNL     1       0.160   2.355  -0.125  1.00  0.00    -0.021 C 
ATOM     22  H   UNL     1      -0.363   3.191  -0.590  1.00  0.00     0.032 H 
ATOM     23  H   UNL     1       1.035   2.196  -0.758  1.00  0.00     0.032 H 
BRANCH  21  24
ATOM     24  C   UNL     1       0.611   2.740   1.296  1.00  0.00    -0.052 C 
ATOM     25  H   UNL     1       1.121   1.895   1.761  1.00  0.00     0.027 H 
ATOM     26  H   UNL     1      -0.263   2.947   1.915  1.00  0.00     0.027 H 
BRANCH  24  27
ATOM     27  C   UNL     1       1.546   3.955   1.317  1.00  0.00    -0.065 C 
ATOM     28  H   UNL     1       1.834   4.208   2.338  1.00  0.00     0.023 H 
ATOM     29  H   UNL     1       1.068   4.832   0.880  1.00  0.00     0.023 H 
ATOM     30  H   UNL     1       2.462   3.758   0.757  1.00  0.00     0.023 H 
ENDBRANCH  24  27
ENDBRANCH  21  24
ENDBRANCH   9  21
ENDBRANCH   4   5
ENDBRANCH   1   4
BRANCH   1  31
ATOM     31  C   UNL     1       3.489  -1.142  -0.044  1.00  0.00    -0.018 C 
ATOM     32  H   UNL     1       4.043  -2.080  -0.094  1.00  0.00     0.030 H 
ATOM     33  H   UNL     1       3.789  -0.567  -0.921  1.00  0.00     0.030 H 
BRANCH  31  34
ATOM     34  C   UNL     1       3.879  -0.385   1.244  1.00  0.00    -0.046 C 
ATOM     35  H   UNL     1       3.272   0.516   1.346  1.00  0.00     0.027 H 
ATOM     36  H   UNL     1       3.632  -1.006   2.106  1.00  0.00     0.027 H 
BRANCH  34  37
ATOM     37  C   UNL     1       5.370   0.005   1.321  1.00  0.00    -0.021 C 
ATOM     38  H   UNL     1       5.571   0.411   2.313  1.00  0.00     0.032 H 
ATOM     39  H   UNL     1       5.975  -0.901   1.262  1.00  0.00     0.032 H 
BRANCH  37  40
ATOM     40  C   UNL     1       5.783   1.014   0.259  1.00  0.00     0.010 A 
ATOM     41  N   UNL     1       5.427   2.277   0.306  1.00  0.00    -0.335 NA
ATOM     42  N   UNL     1       6.504   0.687  -0.788  1.00  0.00    -0.275 NA
ATOM     43  N   UNL     1       5.969   2.840  -0.825  1.00  0.00    -0.257 NA
ATOM     44  N   UNL     1       6.638   1.853  -1.504  1.00  0.00    -0.191 NA
ENDBRANCH  37  40
ENDBRANCH  34  37
ENDBRANCH  31  34
ENDBRANCH   1  31
TORSDOF 12
