REMARK SMILES COc1ccc2sc(C(=O)Nc3nnn[n-]3)c(OC(C)C)c2c1
REMARK SMILES IDX 7 1 8 2 6 3 17 4 22 5 5 6 23 7 4 8 3 9 9 13 10 14 11 15
REMARK SMILES IDX 12 17 13 18 16 19 14 20 15 21 18 22 19 23 20 25 21 29 2 33
REMARK SMILES IDX 1 34
REMARK H PARENT 5 10 23 11 4 12 11 16 19 24 20 26 20 27 20 28 21 30 21 31
REMARK H PARENT 21 32 1 35 1 36 1 37
REMARK Flexibility Score: inf
ROOT
ATOM      1  S   UNL     1      -2.526  -0.814   0.081  1.00  0.00    -0.127 S 
ATOM      2  C   UNL     1      -0.798  -1.157   0.030  1.00  0.00     0.124 A 
ATOM      3  C   UNL     1      -2.230   0.914   0.067  1.00  0.00     0.039 A 
ATOM      4  C   UNL     1      -0.041   0.014  -0.014  1.00  0.00     0.150 A 
ATOM      5  C   UNL     1      -0.836   1.202   0.029  1.00  0.00     0.039 A 
ATOM      6  C   UNL     1      -3.189   1.934   0.099  1.00  0.00    -0.040 A 
ATOM      7  C   UNL     1      -0.435   2.551   0.036  1.00  0.00    -0.008 A 
ATOM      8  C   UNL     1      -2.748   3.253   0.097  1.00  0.00    -0.019 A 
ATOM      9  C   UNL     1      -1.394   3.576   0.068  1.00  0.00     0.119 A 
ATOM     10  H   UNL     1      -4.246   1.708   0.127  1.00  0.00     0.064 H 
ATOM     11  H   UNL     1       0.618   2.781   0.013  1.00  0.00     0.067 H 
ATOM     12  H   UNL     1      -3.479   4.048   0.123  1.00  0.00     0.066 H 
ENDROOT
BRANCH   2  13
ATOM     13  C   UNL     1      -0.300  -2.521   0.114  1.00  0.00     0.229 C 
ATOM     14  O   UNL     1       0.885  -2.736   0.379  1.00  0.00    -0.281 OA
ATOM     15  N   UNL     1      -1.222  -3.487  -0.132  1.00  0.00    -0.354 N 
ATOM     16  H   UNL     1      -2.158  -3.180  -0.353  1.00  0.00     0.101 HD
BRANCH  15  17
ATOM     17  C   UNL     1      -1.044  -4.867  -0.122  1.00  0.00     0.102 A 
ATOM     18  N   UNL     1      -2.064  -5.643  -0.402  1.00  0.00    -0.268 NA
ATOM     19  N   UNL     1       0.066  -5.528   0.148  1.00  0.00    -0.223 NA
ATOM     20  N   UNL     1      -1.586  -6.929  -0.309  1.00  0.00    -0.197 NA
ATOM     21  N   UNL     1      -0.262  -6.858   0.033  1.00  0.00    -0.148 NA
ENDBRANCH  15  17
ENDBRANCH   2  13
BRANCH   4  22
ATOM     22  O   UNL     1       1.330   0.089  -0.031  1.00  0.00    -0.489 OA
BRANCH  22  23
ATOM     23  C   UNL     1       1.924  -0.141  -1.311  1.00  0.00     0.093 C 
ATOM     24  H   UNL     1       1.450  -0.992  -1.805  1.00  0.00     0.074 H 
BRANCH  23  25
ATOM     25  C   UNL     1       3.392  -0.517  -1.065  1.00  0.00    -0.028 C 
ATOM     26  H   UNL     1       3.911  -0.723  -2.002  1.00  0.00     0.027 H 
ATOM     27  H   UNL     1       3.466  -1.412  -0.446  1.00  0.00     0.027 H 
ATOM     28  H   UNL     1       3.928   0.284  -0.554  1.00  0.00     0.027 H 
ENDBRANCH  23  25
BRANCH  23  29
ATOM     29  C   UNL     1       1.795   1.093  -2.223  1.00  0.00    -0.028 C 
ATOM     30  H   UNL     1       2.300   0.933  -3.175  1.00  0.00     0.027 H 
ATOM     31  H   UNL     1       2.232   1.978  -1.758  1.00  0.00     0.027 H 
ATOM     32  H   UNL     1       0.751   1.316  -2.447  1.00  0.00     0.027 H 
ENDBRANCH  23  29
ENDBRANCH  22  23
ENDBRANCH   4  22
BRANCH   9  33
ATOM     33  O   UNL     1      -1.087   4.924   0.073  1.00  0.00    -0.497 OA
BRANCH  33  34
ATOM     34  C   UNL     1       0.277   5.329   0.038  1.00  0.00     0.078 C 
ATOM     35  H   UNL     1       0.330   6.417   0.047  1.00  0.00     0.067 H 
ATOM     36  H   UNL     1       0.774   4.981  -0.869  1.00  0.00     0.067 H 
ATOM     37  H   UNL     1       0.825   4.965   0.909  1.00  0.00     0.067 H 
ENDBRANCH  33  34
ENDBRANCH   9  33
TORSDOF 8
