REMARK SMILES CC(=O)C[C@@H](c1ccccc1)c1c([O-])c2ccccc2oc1=O
REMARK SMILES IDX 4 1 5 4 12 6 23 7 22 8 21 9 20 10 13 11 15 12 19 13 14 14
REMARK SMILES IDX 16 15 18 16 17 18 6 22 7 23 11 24 8 25 10 27 9 29 2 33 3 34
REMARK SMILES IDX 1 35
REMARK H PARENT 4 2 4 3 5 5 19 17 16 19 18 20 17 21 7 26 11 28 8 30 10 31 9 32
REMARK H PARENT 1 36 1 37 1 38
REMARK Flexibility Score: inf
ROOT
ATOM      1  C   UNL     1       1.734  -0.111  -0.082  1.00  0.00     0.017 C 
ATOM      2  H   UNL     1       2.180   0.280  -0.996  1.00  0.00     0.036 H 
ATOM      3  H   UNL     1       2.001  -1.168  -0.054  1.00  0.00     0.036 H 
ENDROOT
BRANCH   1   4
ATOM      4  C   UNL     1       0.182   0.029  -0.143  1.00  0.00     0.022 C 
ATOM      5  H   UNL     1      -0.143  -0.410   0.800  1.00  0.00     0.041 H 
BRANCH   4   6
ATOM      6  C   UNL     1      -0.450  -0.806  -1.292  1.00  0.00     0.038 A 
ATOM      7  O   UNL     1       0.565   0.645  -2.987  1.00  0.00    -0.246 OA
ATOM      8  C   UNL     1      -0.139  -0.311  -2.667  1.00  0.00     0.339 A 
ATOM      9  O   UNL     1      -0.692  -0.990  -3.735  1.00  0.00    -0.423 OA
ATOM     10  C   UNL     1      -1.483  -2.114  -3.582  1.00  0.00     0.137 A 
ATOM     11  C   UNL     1      -1.239  -1.910  -1.150  1.00  0.00    -0.086 A 
ATOM     12  C   UNL     1      -1.807  -2.641  -2.323  1.00  0.00     0.010 A 
ATOM     13  C   UNL     1      -1.951  -2.705  -4.757  1.00  0.00    -0.019 A 
ATOM     14  O   UNL     1      -1.543  -2.386   0.014  1.00  0.00    -0.872 OA
ATOM     15  C   UNL     1      -2.622  -3.792  -2.277  1.00  0.00    -0.052 A 
ATOM     16  C   UNL     1      -2.754  -3.842  -4.689  1.00  0.00    -0.059 A 
ATOM     17  H   UNL     1      -1.693  -2.287  -5.719  1.00  0.00     0.066 H 
ATOM     18  C   UNL     1      -3.089  -4.385  -3.450  1.00  0.00    -0.061 A 
ATOM     19  H   UNL     1      -2.901  -4.238  -1.333  1.00  0.00     0.063 H 
ATOM     20  H   UNL     1      -3.116  -4.302  -5.596  1.00  0.00     0.062 H 
ATOM     21  H   UNL     1      -3.711  -5.266  -3.398  1.00  0.00     0.062 H 
ENDBRANCH   4   6
BRANCH   4  22
ATOM     22  C   UNL     1      -0.383   1.462  -0.069  1.00  0.00    -0.040 A 
ATOM     23  C   UNL     1      -1.664   1.654   0.463  1.00  0.00    -0.058 A 
ATOM     24  C   UNL     1       0.342   2.571  -0.527  1.00  0.00    -0.058 A 
ATOM     25  C   UNL     1      -2.211   2.932   0.543  1.00  0.00    -0.062 A 
ATOM     26  H   UNL     1      -2.239   0.808   0.812  1.00  0.00     0.063 H 
ATOM     27  C   UNL     1      -0.204   3.849  -0.448  1.00  0.00    -0.062 A 
ATOM     28  H   UNL     1       1.326   2.448  -0.955  1.00  0.00     0.063 H 
ATOM     29  C   UNL     1      -1.477   4.024   0.088  1.00  0.00    -0.062 A 
ATOM     30  H   UNL     1      -3.199   3.074   0.953  1.00  0.00     0.062 H 
ATOM     31  H   UNL     1       0.357   4.700  -0.803  1.00  0.00     0.062 H 
ATOM     32  H   UNL     1      -1.900   5.016   0.149  1.00  0.00     0.062 H 
ENDBRANCH   4  22
ENDBRANCH   1   4
BRANCH   1  33
ATOM     33  C   UNL     1       2.413   0.553   1.124  1.00  0.00     0.130 C 
ATOM     34  O   UNL     1       3.185   1.499   0.980  1.00  0.00    -0.300 OA
BRANCH  33  35
ATOM     35  C   UNL     1       2.108  -0.010   2.509  1.00  0.00    -0.006 C 
ATOM     36  H   UNL     1       2.330  -1.076   2.544  1.00  0.00     0.031 H 
ATOM     37  H   UNL     1       1.058   0.143   2.760  1.00  0.00     0.031 H 
ATOM     38  H   UNL     1       2.711   0.491   3.266  1.00  0.00     0.031 H 
ENDBRANCH  33  35
ENDBRANCH   1  33
TORSDOF 5
