REMARK SMILES N#Cc1ccc(N(CC(N)=O)CC(F)(F)F)cc1C(F)(F)F
REMARK SMILES IDX 7 1 6 2 18 3 3 4 17 5 4 6 5 8 19 11 20 12 21 13 22 14 2 15
REMARK SMILES IDX 1 16 8 17 9 20 11 21 10 22 12 25 13 28 14 29 15 30 16 31
REMARK H PARENT 17 7 4 9 5 10 8 18 8 19 10 23 10 24 12 26 12 27
REMARK Flexibility Score: inf
ROOT
ATOM      1  N   UNL     1       1.333   0.220   0.037  1.00  0.00    -0.353 N 
ENDROOT
BRANCH   1   2
ATOM      2  C   UNL     1      -0.076   0.119  -0.032  1.00  0.00     0.038 A 
ATOM      3  C   UNL     1      -2.118  -1.229   0.111  1.00  0.00     0.075 A 
ATOM      4  C   UNL     1      -2.885  -0.071  -0.151  1.00  0.00     0.064 A 
ATOM      5  C   UNL     1      -0.721  -1.109   0.167  1.00  0.00    -0.025 A 
ATOM      6  C   UNL     1      -2.245   1.156  -0.346  1.00  0.00    -0.042 A 
ATOM      7  H   UNL     1      -0.120  -1.987   0.356  1.00  0.00     0.065 H 
ATOM      8  C   UNL     1      -0.858   1.250  -0.285  1.00  0.00    -0.037 A 
ATOM      9  H   UNL     1      -2.816   2.053  -0.543  1.00  0.00     0.064 H 
ATOM     10  H   UNL     1      -0.397   2.217  -0.426  1.00  0.00     0.065 H 
BRANCH   3  11
ATOM     11  C   UNL     1      -2.763  -2.609   0.335  1.00  0.00     0.417 C 
ATOM     12  F   UNL     1      -1.864  -3.569   0.567  1.00  0.00    -0.166 F 
ATOM     13  F   UNL     1      -3.463  -2.965  -0.743  1.00  0.00    -0.166 F 
ATOM     14  F   UNL     1      -3.583  -2.563   1.386  1.00  0.00    -0.166 F 
ENDBRANCH   3  11
BRANCH   4  15
ATOM     15  C   UNL     1      -4.343  -0.093  -0.230  1.00  0.00     0.100 C 
ATOM     16  N   UNL     1      -5.499  -0.110  -0.292  1.00  0.00    -0.192 NA
ENDBRANCH   4  15
ENDBRANCH   1   2
BRANCH   1  17
ATOM     17  C   UNL     1       2.079  -0.569   1.005  1.00  0.00     0.097 C 
ATOM     18  H   UNL     1       2.515  -1.448   0.529  1.00  0.00     0.060 H 
ATOM     19  H   UNL     1       1.468  -0.984   1.809  1.00  0.00     0.060 H 
BRANCH  17  20
ATOM     20  C   UNL     1       3.215   0.233   1.659  1.00  0.00     0.236 C 
ATOM     21  O   UNL     1       4.363   0.162   1.225  1.00  0.00    -0.273 OA
ATOM     22  N   UNL     1       2.895   1.019   2.692  1.00  0.00    -0.368 N 
ATOM     23  H   UNL     1       1.942   1.069   3.020  1.00  0.00     0.159 HD
ATOM     24  H   UNL     1       3.608   1.569   3.147  1.00  0.00     0.159 HD
ENDBRANCH  17  20
ENDBRANCH   1  17
BRANCH   1  25
ATOM     25  C   UNL     1       1.982   0.811  -1.149  1.00  0.00     0.114 C 
ATOM     26  H   UNL     1       1.311   1.493  -1.673  1.00  0.00     0.059 H 
ATOM     27  H   UNL     1       2.800   1.447  -0.810  1.00  0.00     0.059 H 
BRANCH  25  28
ATOM     28  C   UNL     1       2.524  -0.207  -2.174  1.00  0.00     0.405 C 
ATOM     29  F   UNL     1       2.949   0.423  -3.268  1.00  0.00    -0.169 F 
ATOM     30  F   UNL     1       3.553  -0.908  -1.697  1.00  0.00    -0.169 F 
ATOM     31  F   UNL     1       1.584  -1.073  -2.556  1.00  0.00    -0.169 F 
ENDBRANCH  25  28
ENDBRANCH   1  25
TORSDOF 7
