REMARK SMILES CC(C)(C)c1ccc2c(S(=O)(=O)[O-])c(C(C)(C)C)ccc2c1
REMARK SMILES IDX 9 1 8 2 14 3 21 4 7 5 19 6 22 7 20 8 6 9 5 10 10 16 11 17
REMARK SMILES IDX 12 18 13 19 15 20 16 21 17 25 18 29 2 33 1 34 3 38 4 42
REMARK H PARENT 7 11 19 12 22 13 20 14 6 15 16 22 16 23 16 24 17 26 17 27
REMARK H PARENT 17 28 18 30 18 31 18 32 1 35 1 36 1 37 3 39 3 40 3 41 4 43
REMARK H PARENT 4 44 4 45
REMARK Flexibility Score: inf
ROOT
ATOM      1  C   UNL     1       1.603   0.018   0.000  1.00  0.00     0.066 A 
ATOM      2  C   UNL     1       2.347  -1.236   0.000  1.00  0.00    -0.001 A 
ATOM      3  C   UNL     1       2.337   1.255   0.000  1.00  0.00    -0.024 A 
ATOM      4  C   UNL     1       3.775  -1.218   0.000  1.00  0.00    -0.017 A 
ATOM      5  C   UNL     1       1.743  -2.533   0.000  1.00  0.00    -0.053 A 
ATOM      6  C   UNL     1       3.739   1.191   0.000  1.00  0.00    -0.057 A 
ATOM      7  C   UNL     1       4.520  -2.426   0.001  1.00  0.00    -0.051 A 
ATOM      8  C   UNL     1       4.445   0.008   0.001  1.00  0.00    -0.054 A 
ATOM      9  C   UNL     1       2.497  -3.701   0.001  1.00  0.00    -0.058 A 
ATOM     10  C   UNL     1       3.891  -3.675   0.001  1.00  0.00    -0.042 A 
ATOM     11  H   UNL     1       0.674  -2.658   0.001  1.00  0.00     0.063 H 
ATOM     12  H   UNL     1       4.356   2.074   0.001  1.00  0.00     0.063 H 
ATOM     13  H   UNL     1       5.596  -2.345   0.001  1.00  0.00     0.063 H 
ATOM     14  H   UNL     1       5.526   0.028   0.001  1.00  0.00     0.063 H 
ATOM     15  H   UNL     1       1.972  -4.644   0.001  1.00  0.00     0.063 H 
ENDROOT
BRANCH   1  16
ATOM     16  S   UNL     1      -0.242  -0.161  -0.000  1.00  0.00     0.125 S 
ATOM     17  O   UNL     1      -0.479  -0.910   1.240  1.00  0.00    -0.237 OA
ATOM     18  O   UNL     1      -0.479  -0.910  -1.240  1.00  0.00    -0.237 OA
ATOM     19  O   UNL     1      -0.868   1.162   0.000  1.00  0.00    -0.744 OA
ENDBRANCH   1  16
BRANCH   3  20
ATOM     20  C   UNL     1       1.704   2.689   0.000  1.00  0.00    -0.012 C 
BRANCH  20  21
ATOM     21  C   UNL     1       2.728   3.873   0.001  1.00  0.00    -0.056 C 
ATOM     22  H   UNL     1       2.219   4.839   0.001  1.00  0.00     0.024 H 
ATOM     23  H   UNL     1       3.375   3.866  -0.878  1.00  0.00     0.024 H 
ATOM     24  H   UNL     1       3.375   3.866   0.880  1.00  0.00     0.024 H 
ENDBRANCH  20  21
BRANCH  20  25
ATOM     25  C   UNL     1       0.895   2.911   1.317  1.00  0.00    -0.056 C 
ATOM     26  H   UNL     1       1.519   3.304   2.121  1.00  0.00     0.024 H 
ATOM     27  H   UNL     1       0.478   2.002   1.744  1.00  0.00     0.024 H 
ATOM     28  H   UNL     1       0.081   3.624   1.180  1.00  0.00     0.024 H 
ENDBRANCH  20  25
BRANCH  20  29
ATOM     29  C   UNL     1       0.895   2.911  -1.316  1.00  0.00    -0.056 C 
ATOM     30  H   UNL     1       0.081   3.624  -1.179  1.00  0.00     0.024 H 
ATOM     31  H   UNL     1       0.478   2.002  -1.743  1.00  0.00     0.024 H 
ATOM     32  H   UNL     1       1.519   3.304  -2.119  1.00  0.00     0.024 H 
ENDBRANCH  20  29
ENDBRANCH   3  20
BRANCH  10  33
ATOM     33  C   UNL     1       4.683  -5.008   0.001  1.00  0.00    -0.013 C 
BRANCH  33  34
ATOM     34  C   UNL     1       4.323  -5.829   1.264  1.00  0.00    -0.056 C 
ATOM     35  H   UNL     1       4.882  -6.765   1.308  1.00  0.00     0.024 H 
ATOM     36  H   UNL     1       3.265  -6.093   1.298  1.00  0.00     0.024 H 
ATOM     37  H   UNL     1       4.549  -5.275   2.176  1.00  0.00     0.024 H 
ENDBRANCH  33  34
BRANCH  33  38
ATOM     38  C   UNL     1       6.222  -4.808   0.001  1.00  0.00    -0.056 C 
ATOM     39  H   UNL     1       6.560  -4.262   0.883  1.00  0.00     0.024 H 
ATOM     40  H   UNL     1       6.560  -4.262  -0.881  1.00  0.00     0.024 H 
ATOM     41  H   UNL     1       6.751  -5.763   0.001  1.00  0.00     0.024 H 
ENDBRANCH  33  38
BRANCH  33  42
ATOM     42  C   UNL     1       4.323  -5.829  -1.262  1.00  0.00    -0.056 C 
ATOM     43  H   UNL     1       4.882  -6.765  -1.306  1.00  0.00     0.024 H 
ATOM     44  H   UNL     1       4.549  -5.275  -2.175  1.00  0.00     0.024 H 
ATOM     45  H   UNL     1       3.265  -6.093  -1.296  1.00  0.00     0.024 H 
ENDBRANCH  33  42
ENDBRANCH  10  33
TORSDOF 9
