REMARK SMILES CCc1ccc(CCOc2ccc(C[C@@H]3SC(=O)NC3=O)cc2)[nH+]c1
REMARK SMILES IDX 8 1 9 4 10 5 13 6 12 7 22 8 11 9 23 11 14 15 15 18 16 19
REMARK SMILES IDX 17 20 18 21 19 22 20 23 21 26 7 27 6 30 24 31 5 32 25 33
REMARK SMILES IDX 4 35 3 37 2 40 1 43
REMARK H PARENT 8 2 8 3 12 10 22 12 11 13 23 14 14 16 14 17 15 24 19 25 7 28
REMARK H PARENT 7 29 24 34 5 36 25 38 4 39 2 41 2 42 1 44 1 45 1 46
REMARK Flexibility Score: inf
ROOT
ATOM      1  C   UNL     1       1.579   0.157  -0.126  1.00  0.00     0.098 C 
ATOM      2  H   UNL     1       1.984   0.657   0.757  1.00  0.00     0.071 H 
ATOM      3  H   UNL     1       1.946   0.673  -1.015  1.00  0.00     0.071 H 
ENDROOT
BRANCH   1   4
ATOM      4  O   UNL     1       0.156   0.193  -0.093  1.00  0.00    -0.493 OA
BRANCH   4   5
ATOM      5  C   UNL     1      -0.490   1.413  -0.054  1.00  0.00     0.119 A 
ATOM      6  C   UNL     1      -1.967   3.791   0.044  1.00  0.00    -0.046 A 
ATOM      7  C   UNL     1      -2.621   2.557   0.061  1.00  0.00    -0.055 A 
ATOM      8  C   UNL     1      -0.574   3.837  -0.034  1.00  0.00    -0.055 A 
ATOM      9  C   UNL     1      -1.884   1.378   0.014  1.00  0.00    -0.020 A 
ATOM     10  H   UNL     1      -3.699   2.510   0.117  1.00  0.00     0.063 H 
ATOM     11  C   UNL     1       0.163   2.656  -0.079  1.00  0.00    -0.020 A 
ATOM     12  H   UNL     1      -0.059   4.786  -0.052  1.00  0.00     0.063 H 
ATOM     13  H   UNL     1      -2.399   0.428   0.033  1.00  0.00     0.066 H 
ATOM     14  H   UNL     1       1.238   2.727  -0.134  1.00  0.00     0.066 H 
BRANCH   6  15
ATOM     15  C   UNL     1      -2.775   5.088   0.101  1.00  0.00    -0.006 C 
ATOM     16  H   UNL     1      -2.266   5.839  -0.505  1.00  0.00     0.033 H 
ATOM     17  H   UNL     1      -3.725   4.932  -0.414  1.00  0.00     0.033 H 
BRANCH  15  18
ATOM     18  C   UNL     1      -3.035   5.670   1.520  1.00  0.00     0.097 C 
ATOM     19  S   UNL     1      -1.526   6.113   2.410  1.00  0.00    -0.051 SA
ATOM     20  C   UNL     1      -1.956   5.037   3.789  1.00  0.00     0.286 C 
ATOM     21  O   UNL     1      -1.251   4.878   4.784  1.00  0.00    -0.261 OA
ATOM     22  N   UNL     1      -3.143   4.468   3.550  1.00  0.00    -0.286 N 
ATOM     23  C   UNL     1      -3.820   4.714   2.422  1.00  0.00     0.241 C 
ATOM     24  H   UNL     1      -3.625   6.583   1.425  1.00  0.00     0.053 H 
ATOM     25  H   UNL     1      -3.537   3.840   4.236  1.00  0.00     0.173 HD
ATOM     26  O   UNL     1      -4.919   4.243   2.138  1.00  0.00    -0.273 OA
ENDBRANCH  15  18
ENDBRANCH   6  15
ENDBRANCH   4   5
ENDBRANCH   1   4
BRANCH   1  27
ATOM     27  C   UNL     1       2.031  -1.311  -0.149  1.00  0.00     0.067 C 
ATOM     28  H   UNL     1       1.613  -1.847   0.705  1.00  0.00     0.041 H 
ATOM     29  H   UNL     1       1.623  -1.807  -1.031  1.00  0.00     0.041 H 
BRANCH  27  30
ATOM     30  C   UNL     1       3.544  -1.458  -0.140  1.00  0.00     0.183 A 
ATOM     31  N   UNL     1       4.204  -1.415  -1.317  1.00  0.00    -0.215 N 
ATOM     32  C   UNL     1       4.277  -1.598   1.044  1.00  0.00     0.006 A 
ATOM     33  C   UNL     1       5.545  -1.510  -1.419  1.00  0.00     0.170 A 
ATOM     34  H   UNL     1       3.665  -1.305  -2.164  1.00  0.00     0.453 HD
ATOM     35  C   UNL     1       5.670  -1.701   0.983  1.00  0.00    -0.047 A 
ATOM     36  H   UNL     1       3.776  -1.624   2.001  1.00  0.00     0.069 H 
ATOM     37  C   UNL     1       6.317  -1.656  -0.260  1.00  0.00     0.016 A 
ATOM     38  H   UNL     1       5.946  -1.464  -2.421  1.00  0.00     0.140 H 
ATOM     39  H   UNL     1       6.241  -1.811   1.894  1.00  0.00     0.063 H 
BRANCH  37  40
ATOM     40  C   UNL     1       7.832  -1.763  -0.348  1.00  0.00    -0.025 C 
ATOM     41  H   UNL     1       8.175  -1.321  -1.285  1.00  0.00     0.032 H 
ATOM     42  H   UNL     1       8.277  -1.151   0.438  1.00  0.00     0.032 H 
BRANCH  40  43
ATOM     43  C   UNL     1       8.334  -3.210  -0.240  1.00  0.00    -0.061 C 
ATOM     44  H   UNL     1       9.421  -3.249  -0.311  1.00  0.00     0.023 H 
ATOM     45  H   UNL     1       7.929  -3.830  -1.041  1.00  0.00     0.023 H 
ATOM     46  H   UNL     1       8.049  -3.661   0.711  1.00  0.00     0.023 H 
ENDBRANCH  40  43
ENDBRANCH  37  40
ENDBRANCH  27  30
ENDBRANCH   1  27
TORSDOF 8
