REMARK SMILES CN(CCOc1ccc(C[C@@H]2SC([O-])=NC2=O)cc1)c1cccc[nH+]1
REMARK SMILES IDX 4 1 5 4 6 5 9 6 8 7 18 8 7 9 19 11 10 15 11 18 12 19 13 20
REMARK SMILES IDX 14 21 15 22 16 23 17 25 3 26 2 29 20 30 25 31 21 32 24 33
REMARK SMILES IDX 22 35 23 37 1 41
REMARK H PARENT 4 2 4 3 8 10 18 12 7 13 19 14 10 16 10 17 11 24 3 27 3 28
REMARK H PARENT 25 34 21 36 24 38 22 39 23 40 1 42 1 43 1 44
REMARK Flexibility Score: inf
ROOT
ATOM      1  C   UNL     1       1.638   0.191  -0.081  1.00  0.00     0.125 C 
ATOM      2  H   UNL     1       1.939   0.632   0.872  1.00  0.00     0.075 H 
ATOM      3  H   UNL     1       2.081   0.784  -0.884  1.00  0.00     0.075 H 
ENDROOT
BRANCH   1   4
ATOM      4  O   UNL     1       0.219   0.200  -0.194  1.00  0.00    -0.490 OA
BRANCH   4   5
ATOM      5  C   UNL     1      -0.460   1.401  -0.124  1.00  0.00     0.119 A 
ATOM      6  C   UNL     1      -2.002   3.733  -0.002  1.00  0.00    -0.046 A 
ATOM      7  C   UNL     1      -2.620   2.493  -0.173  1.00  0.00    -0.055 A 
ATOM      8  C   UNL     1      -0.613   3.810   0.107  1.00  0.00    -0.055 A 
ATOM      9  C   UNL     1      -1.850   1.336  -0.234  1.00  0.00    -0.020 A 
ATOM     10  H   UNL     1      -3.695   2.424  -0.255  1.00  0.00     0.063 H 
ATOM     11  C   UNL     1       0.157   2.651   0.047  1.00  0.00    -0.020 A 
ATOM     12  H   UNL     1      -0.129   4.767   0.242  1.00  0.00     0.063 H 
ATOM     13  H   UNL     1      -2.337   0.380  -0.364  1.00  0.00     0.066 H 
ATOM     14  H   UNL     1       1.228   2.744   0.135  1.00  0.00     0.066 H 
BRANCH   6  15
ATOM     15  C   UNL     1      -2.841   5.004   0.069  1.00  0.00    -0.006 C 
ATOM     16  H   UNL     1      -2.360   5.751  -0.566  1.00  0.00     0.033 H 
ATOM     17  H   UNL     1      -3.815   4.824  -0.393  1.00  0.00     0.033 H 
BRANCH  15  18
ATOM     18  C   UNL     1      -3.017   5.551   1.508  1.00  0.00     0.095 C 
ATOM     19  S   UNL     1      -3.953   4.438   2.580  1.00  0.00    -0.108 SA
ATOM     20  C   UNL     1      -5.127   5.747   2.838  1.00  0.00     0.027 C 
ATOM     21  O   UNL     1      -6.109   5.535   3.561  1.00  0.00    -0.854 OA
ATOM     22  N   UNL     1      -4.918   6.858   2.272  1.00  0.00    -0.222 NA
ATOM     23  C   UNL     1      -3.776   6.886   1.509  1.00  0.00     0.259 C 
ATOM     24  H   UNL     1      -2.043   5.721   1.971  1.00  0.00     0.053 H 
ATOM     25  O   UNL     1      -3.378   7.872   0.890  1.00  0.00    -0.271 OA
ENDBRANCH  15  18
ENDBRANCH   6  15
ENDBRANCH   4   5
ENDBRANCH   1   4
BRANCH   1  26
ATOM     26  C   UNL     1       2.117  -1.269  -0.172  1.00  0.00     0.119 C 
ATOM     27  H   UNL     1       1.633  -1.896   0.577  1.00  0.00     0.079 H 
ATOM     28  H   UNL     1       1.820  -1.696  -1.131  1.00  0.00     0.079 H 
BRANCH  26  29
ATOM     29  N   UNL     1       3.580  -1.425  -0.053  1.00  0.00    -0.261 N 
BRANCH  29  30
ATOM     30  C   UNL     1       4.218  -1.442   1.246  1.00  0.00     0.274 A 
ATOM     31  N   UNL     1       5.566  -1.550   1.334  1.00  0.00    -0.248 N 
ATOM     32  C   UNL     1       3.498  -1.351   2.454  1.00  0.00     0.027 A 
ATOM     33  C   UNL     1       6.255  -1.576   2.492  1.00  0.00     0.088 A 
ATOM     34  H   UNL     1       6.088  -1.617   0.473  1.00  0.00     0.311 HD
ATOM     35  C   UNL     1       4.172  -1.375   3.680  1.00  0.00    -0.051 A 
ATOM     36  H   UNL     1       2.423  -1.257   2.472  1.00  0.00     0.071 H 
ATOM     37  C   UNL     1       5.563  -1.489   3.700  1.00  0.00    -0.023 A 
ATOM     38  H   UNL     1       7.328  -1.666   2.406  1.00  0.00     0.109 H 
ATOM     39  H   UNL     1       3.619  -1.305   4.605  1.00  0.00     0.063 H 
ATOM     40  H   UNL     1       6.096  -1.508   4.640  1.00  0.00     0.066 H 
ENDBRANCH  29  30
BRANCH  29  41
ATOM     41  C   UNL     1       4.373  -1.430  -1.296  1.00  0.00     0.075 C 
ATOM     42  H   UNL     1       5.416  -1.693  -1.125  1.00  0.00     0.072 H 
ATOM     43  H   UNL     1       4.318  -0.438  -1.745  1.00  0.00     0.072 H 
ATOM     44  H   UNL     1       3.940  -2.160  -1.980  1.00  0.00     0.072 H 
ENDBRANCH  29  41
ENDBRANCH  26  29
ENDBRANCH   1  26
TORSDOF 8
