REMARK SMILES CCCc1c(OCCCCc2nnn[n-]2)ccc(C(C)=O)c1[O-]
REMARK SMILES IDX 7 1 6 4 5 5 18 6 22 7 17 8 23 9 4 10 16 11 19 14 21 15 20 16
REMARK SMILES IDX 3 20 2 23 1 26 8 30 9 33 10 36 11 39 12 40 15 41 13 42 14 43
REMARK H PARENT 7 2 7 3 17 12 16 13 20 17 20 18 20 19 3 21 3 22 2 24 2 25 1 27
REMARK H PARENT 1 28 1 29 8 31 8 32 9 34 9 35 10 37 10 38
REMARK Flexibility Score: inf
ROOT
ATOM      1  C   UNL     1       1.982  -1.335   0.188  1.00  0.00     0.088 C 
ATOM      2  H   UNL     1       1.775  -1.886   1.107  1.00  0.00     0.071 H 
ATOM      3  H   UNL     1       1.684  -1.963  -0.654  1.00  0.00     0.071 H 
ENDROOT
BRANCH   1   4
ATOM      4  O   UNL     1       1.257  -0.109   0.180  1.00  0.00    -0.493 OA
BRANCH   4   5
ATOM      5  C   UNL     1      -0.127  -0.112   0.219  1.00  0.00     0.121 A 
ATOM      6  C   UNL     1      -2.959  -0.032   0.262  1.00  0.00     0.010 A 
ATOM      7  C   UNL     1      -2.210   1.178   0.160  1.00  0.00    -0.091 A 
ATOM      8  C   UNL     1      -2.263  -1.242   0.355  1.00  0.00    -0.048 A 
ATOM      9  O   UNL     1      -2.796   2.316   0.044  1.00  0.00    -0.872 OA
ATOM     10  C   UNL     1      -0.788   1.127   0.144  1.00  0.00    -0.013 A 
ATOM     11  C   UNL     1      -0.878  -1.286   0.326  1.00  0.00    -0.019 A 
ATOM     12  H   UNL     1      -2.786  -2.183   0.458  1.00  0.00     0.063 H 
ATOM     13  H   UNL     1      -0.405  -2.253   0.395  1.00  0.00     0.066 H 
BRANCH   6  14
ATOM     14  C   UNL     1      -4.466  -0.131   0.357  1.00  0.00     0.159 C 
ATOM     15  O   UNL     1      -5.191   0.718   0.877  1.00  0.00    -0.295 OA
BRANCH  14  16
ATOM     16  C   UNL     1      -5.136  -1.271  -0.413  1.00  0.00    -0.001 C 
ATOM     17  H   UNL     1      -5.073  -2.204   0.146  1.00  0.00     0.031 H 
ATOM     18  H   UNL     1      -6.183  -1.043  -0.613  1.00  0.00     0.031 H 
ATOM     19  H   UNL     1      -4.643  -1.414  -1.375  1.00  0.00     0.031 H 
ENDBRANCH  14  16
ENDBRANCH   6  14
BRANCH  10  20
ATOM     20  C   UNL     1       0.097   2.390   0.023  1.00  0.00    -0.025 C 
ATOM     21  H   UNL     1       0.990   2.271   0.639  1.00  0.00     0.032 H 
ATOM     22  H   UNL     1      -0.397   3.263   0.449  1.00  0.00     0.032 H 
BRANCH  20  23
ATOM     23  C   UNL     1       0.509   2.680  -1.432  1.00  0.00    -0.052 C 
ATOM     24  H   UNL     1      -0.383   2.839  -2.039  1.00  0.00     0.027 H 
ATOM     25  H   UNL     1       1.014   1.810  -1.853  1.00  0.00     0.027 H 
BRANCH  23  26
ATOM     26  C   UNL     1       1.433   3.898  -1.562  1.00  0.00    -0.065 C 
ATOM     27  H   UNL     1       1.699   4.074  -2.605  1.00  0.00     0.023 H 
ATOM     28  H   UNL     1       2.359   3.754  -1.005  1.00  0.00     0.023 H 
ATOM     29  H   UNL     1       0.951   4.802  -1.187  1.00  0.00     0.023 H 
ENDBRANCH  23  26
ENDBRANCH  20  23
ENDBRANCH  10  20
ENDBRANCH   4   5
ENDBRANCH   1   4
BRANCH   1  30
ATOM     30  C   UNL     1       3.486  -1.032   0.105  1.00  0.00    -0.018 C 
ATOM     31  H   UNL     1       3.780  -0.447   0.978  1.00  0.00     0.030 H 
ATOM     32  H   UNL     1       4.038  -1.971   0.171  1.00  0.00     0.030 H 
BRANCH  30  33
ATOM     33  C   UNL     1       3.897  -0.288  -1.180  1.00  0.00    -0.046 C 
ATOM     34  H   UNL     1       3.601  -0.878  -2.049  1.00  0.00     0.027 H 
ATOM     35  H   UNL     1       3.348   0.653  -1.246  1.00  0.00     0.027 H 
BRANCH  33  36
ATOM     36  C   UNL     1       5.408   0.002  -1.246  1.00  0.00    -0.021 C 
ATOM     37  H   UNL     1       5.701   0.573  -0.363  1.00  0.00     0.032 H 
ATOM     38  H   UNL     1       5.957  -0.938  -1.168  1.00  0.00     0.032 H 
BRANCH  36  39
ATOM     39  C   UNL     1       5.800   0.745  -2.512  1.00  0.00     0.010 A 
ATOM     40  N   UNL     1       5.792   2.055  -2.596  1.00  0.00    -0.335 NA
ATOM     41  N   UNL     1       6.147   0.128  -3.618  1.00  0.00    -0.275 NA
ATOM     42  N   UNL     1       6.183   2.330  -3.885  1.00  0.00    -0.257 NA
ATOM     43  N   UNL     1       6.404   1.134  -4.519  1.00  0.00    -0.191 NA
ENDBRANCH  36  39
ENDBRANCH  33  36
ENDBRANCH  30  33
ENDBRANCH   1  30
TORSDOF 11
