REMARK SMILES CN(CCOc1ccc(C[C@@H]2SC(=O)NC2=O)cc1)c1cccc[nH+]1
REMARK SMILES IDX 4 1 5 4 6 5 9 6 8 7 18 8 7 9 19 11 10 15 11 18 12 19 13 20
REMARK SMILES IDX 14 21 15 22 16 23 17 26 3 27 2 30 20 31 25 32 21 33 24 34
REMARK SMILES IDX 22 36 23 38 1 42
REMARK H PARENT 4 2 4 3 8 10 18 12 7 13 19 14 10 16 10 17 11 24 15 25 3 28
REMARK H PARENT 3 29 25 35 21 37 24 39 22 40 23 41 1 43 1 44 1 45
REMARK Flexibility Score: inf
ROOT
ATOM      1  C   UNL     1       1.616   0.212  -0.113  1.00  0.00     0.125 C 
ATOM      2  H   UNL     1       1.921   0.660   0.836  1.00  0.00     0.075 H 
ATOM      3  H   UNL     1       2.061   0.796  -0.921  1.00  0.00     0.075 H 
ENDROOT
BRANCH   1   4
ATOM      4  O   UNL     1       0.197   0.228  -0.223  1.00  0.00    -0.490 OA
BRANCH   4   5
ATOM      5  C   UNL     1      -0.477   1.433  -0.163  1.00  0.00     0.119 A 
ATOM      6  C   UNL     1      -2.008   3.773  -0.055  1.00  0.00    -0.046 A 
ATOM      7  C   UNL     1      -2.632   2.534  -0.208  1.00  0.00    -0.055 A 
ATOM      8  C   UNL     1      -0.617   3.845   0.040  1.00  0.00    -0.055 A 
ATOM      9  C   UNL     1      -1.867   1.372  -0.261  1.00  0.00    -0.020 A 
ATOM     10  H   UNL     1      -3.708   2.467  -0.281  1.00  0.00     0.063 H 
ATOM     11  C   UNL     1       0.147   2.682  -0.013  1.00  0.00    -0.020 A 
ATOM     12  H   UNL     1      -0.127   4.801   0.158  1.00  0.00     0.063 H 
ATOM     13  H   UNL     1      -2.359   0.417  -0.377  1.00  0.00     0.066 H 
ATOM     14  H   UNL     1       1.220   2.771   0.065  1.00  0.00     0.066 H 
BRANCH   6  15
ATOM     15  C   UNL     1      -2.840   5.048   0.010  1.00  0.00    -0.006 C 
ATOM     16  H   UNL     1      -2.368   5.784  -0.644  1.00  0.00     0.033 H 
ATOM     17  H   UNL     1      -3.821   4.864  -0.434  1.00  0.00     0.033 H 
BRANCH  15  18
ATOM     18  C   UNL     1      -2.991   5.619   1.443  1.00  0.00     0.097 C 
ATOM     19  S   UNL     1      -3.857   4.501   2.570  1.00  0.00    -0.051 SA
ATOM     20  C   UNL     1      -5.129   5.731   2.908  1.00  0.00     0.286 C 
ATOM     21  O   UNL     1      -6.085   5.544   3.656  1.00  0.00    -0.261 OA
ATOM     22  N   UNL     1      -4.852   6.847   2.225  1.00  0.00    -0.286 N 
ATOM     23  C   UNL     1      -3.776   6.931   1.433  1.00  0.00     0.241 C 
ATOM     24  H   UNL     1      -2.008   5.824   1.871  1.00  0.00     0.053 H 
ATOM     25  H   UNL     1      -5.467   7.643   2.310  1.00  0.00     0.173 HD
ATOM     26  O   UNL     1      -3.452   7.925   0.785  1.00  0.00    -0.273 OA
ENDBRANCH  15  18
ENDBRANCH   6  15
ENDBRANCH   4   5
ENDBRANCH   1   4
BRANCH   1  27
ATOM     27  C   UNL     1       2.085  -1.251  -0.193  1.00  0.00     0.119 C 
ATOM     28  H   UNL     1       1.596  -1.870   0.558  1.00  0.00     0.079 H 
ATOM     29  H   UNL     1       1.786  -1.683  -1.149  1.00  0.00     0.079 H 
BRANCH  27  30
ATOM     30  N   UNL     1       3.547  -1.417  -0.069  1.00  0.00    -0.261 N 
BRANCH  30  31
ATOM     31  C   UNL     1       4.182  -1.429   1.231  1.00  0.00     0.274 A 
ATOM     32  N   UNL     1       5.532  -1.524   1.319  1.00  0.00    -0.248 N 
ATOM     33  C   UNL     1       3.462  -1.342   2.438  1.00  0.00     0.027 A 
ATOM     34  C   UNL     1       6.221  -1.542   2.478  1.00  0.00     0.088 A 
ATOM     35  H   UNL     1       6.055  -1.583   0.458  1.00  0.00     0.311 HD
ATOM     36  C   UNL     1       4.135  -1.357   3.664  1.00  0.00    -0.051 A 
ATOM     37  H   UNL     1       2.385  -1.255   2.456  1.00  0.00     0.071 H 
ATOM     38  C   UNL     1       5.527  -1.458   3.686  1.00  0.00    -0.023 A 
ATOM     39  H   UNL     1       7.295  -1.623   2.393  1.00  0.00     0.109 H 
ATOM     40  H   UNL     1       3.581  -1.288   4.589  1.00  0.00     0.063 H 
ATOM     41  H   UNL     1       6.060  -1.471   4.625  1.00  0.00     0.066 H 
ENDBRANCH  30  31
BRANCH  30  42
ATOM     42  C   UNL     1       4.356  -1.401  -1.302  1.00  0.00     0.075 C 
ATOM     43  H   UNL     1       5.321  -1.885  -1.154  1.00  0.00     0.072 H 
ATOM     44  H   UNL     1       4.503  -0.364  -1.606  1.00  0.00     0.072 H 
ATOM     45  H   UNL     1       3.821  -1.937  -2.086  1.00  0.00     0.072 H 
ENDBRANCH  30  42
ENDBRANCH  27  30
ENDBRANCH   1  27
TORSDOF 8
