REMARK SMILES CCCc1c(OCCCOc2ccc(OCC(=O)[O-])cc2)ccc(C(C)=O)c1[O-]
REMARK SMILES IDX 8 1 9 4 10 7 11 8 14 9 13 10 20 11 12 12 21 14 15 18 16 19
REMARK SMILES IDX 17 22 18 23 19 24 7 25 6 28 5 29 4 30 22 31 28 32 23 33
REMARK SMILES IDX 29 35 24 36 3 38 2 41 1 44 25 48 27 49 26 50
REMARK H PARENT 8 2 8 3 9 5 9 6 13 13 20 15 12 16 21 17 16 20 16 21 7 26 7 27
REMARK H PARENT 22 34 23 37 3 39 3 40 2 42 2 43 1 45 1 46 1 47 26 51 26 52
REMARK H PARENT 26 53
REMARK Flexibility Score: inf
ROOT
ATOM      1  C   UNL     1      -0.177  -0.390  -0.325  1.00  0.00     0.016 C 
ATOM      2  H   UNL     1      -0.499  -0.927  -1.218  1.00  0.00     0.034 H 
ATOM      3  H   UNL     1      -0.610  -0.927   0.519  1.00  0.00     0.034 H 
ENDROOT
BRANCH   1   4
ATOM      4  C   UNL     1      -0.748   1.038  -0.372  1.00  0.00     0.091 C 
ATOM      5  H   UNL     1      -0.416   1.522  -1.293  1.00  0.00     0.071 H 
ATOM      6  H   UNL     1      -1.839   1.002  -0.397  1.00  0.00     0.071 H 
BRANCH   4   7
ATOM      7  O   UNL     1      -0.314   1.769   0.771  1.00  0.00    -0.493 OA
BRANCH   7   8
ATOM      8  C   UNL     1      -0.522   3.134   0.822  1.00  0.00     0.119 A 
ATOM      9  C   UNL     1      -0.829   5.914   1.076  1.00  0.00     0.120 A 
ATOM     10  C   UNL     1      -0.111   5.187   2.038  1.00  0.00    -0.016 A 
ATOM     11  C   UNL     1      -1.393   5.239  -0.006  1.00  0.00    -0.016 A 
ATOM     12  C   UNL     1       0.036   3.809   1.907  1.00  0.00    -0.016 A 
ATOM     13  H   UNL     1       0.340   5.673   2.889  1.00  0.00     0.066 H 
ATOM     14  C   UNL     1      -1.246   3.861  -0.136  1.00  0.00    -0.016 A 
ATOM     15  H   UNL     1      -1.948   5.788  -0.752  1.00  0.00     0.066 H 
ATOM     16  H   UNL     1       0.594   3.261   2.652  1.00  0.00     0.066 H 
ATOM     17  H   UNL     1      -1.699   3.377  -0.988  1.00  0.00     0.066 H 
BRANCH   9  18
ATOM     18  O   UNL     1      -1.025   7.281   1.119  1.00  0.00    -0.488 OA
BRANCH  18  19
ATOM     19  C   UNL     1      -0.478   8.036   2.208  1.00  0.00     0.128 C 
ATOM     20  H   UNL     1      -0.897   7.671   3.148  1.00  0.00     0.077 H 
ATOM     21  H   UNL     1       0.607   7.912   2.227  1.00  0.00     0.077 H 
BRANCH  19  22
ATOM     22  C   UNL     1      -0.818   9.535   2.042  1.00  0.00     0.079 C 
ATOM     23  O   UNL     1      -0.398  10.294   2.944  1.00  0.00    -0.546 OA
ATOM     24  O   UNL     1      -1.476   9.924   1.049  1.00  0.00    -0.546 OA
ENDBRANCH  19  22
ENDBRANCH  18  19
ENDBRANCH   9  18
ENDBRANCH   7   8
ENDBRANCH   4   7
ENDBRANCH   1   4
BRANCH   1  25
ATOM     25  C   UNL     1       1.358  -0.449  -0.229  1.00  0.00     0.091 C 
ATOM     26  H   UNL     1       1.691  -1.483  -0.329  1.00  0.00     0.071 H 
ATOM     27  H   UNL     1       1.678  -0.089   0.751  1.00  0.00     0.071 H 
BRANCH  25  28
ATOM     28  O   UNL     1       1.922   0.358  -1.258  1.00  0.00    -0.493 OA
BRANCH  28  29
ATOM     29  C   UNL     1       3.288   0.576  -1.305  1.00  0.00     0.121 A 
ATOM     30  C   UNL     1       3.763   1.571  -2.179  1.00  0.00    -0.013 A 
ATOM     31  C   UNL     1       4.195  -0.148  -0.528  1.00  0.00    -0.019 A 
ATOM     32  C   UNL     1       5.158   1.840  -2.258  1.00  0.00    -0.091 A 
ATOM     33  C   UNL     1       5.556   0.101  -0.609  1.00  0.00    -0.048 A 
ATOM     34  H   UNL     1       3.863  -0.924   0.145  1.00  0.00     0.066 H 
ATOM     35  O   UNL     1       5.569   2.780  -3.032  1.00  0.00    -0.872 OA
ATOM     36  C   UNL     1       6.069   1.093  -1.454  1.00  0.00     0.010 A 
ATOM     37  H   UNL     1       6.207  -0.507   0.002  1.00  0.00     0.063 H 
BRANCH  30  38
ATOM     38  C   UNL     1       2.708   2.359  -2.989  1.00  0.00    -0.025 C 
ATOM     39  H   UNL     1       3.117   2.705  -3.939  1.00  0.00     0.032 H 
ATOM     40  H   UNL     1       1.895   1.693  -3.283  1.00  0.00     0.032 H 
BRANCH  38  41
ATOM     41  C   UNL     1       2.139   3.552  -2.197  1.00  0.00    -0.052 C 
ATOM     42  H   UNL     1       1.725   3.202  -1.250  1.00  0.00     0.027 H 
ATOM     43  H   UNL     1       2.948   4.238  -1.941  1.00  0.00     0.027 H 
BRANCH  41  44
ATOM     44  C   UNL     1       1.052   4.320  -2.961  1.00  0.00    -0.065 C 
ATOM     45  H   UNL     1       0.687   5.162  -2.372  1.00  0.00     0.023 H 
ATOM     46  H   UNL     1       0.199   3.679  -3.185  1.00  0.00     0.023 H 
ATOM     47  H   UNL     1       1.434   4.716  -3.902  1.00  0.00     0.023 H 
ENDBRANCH  41  44
ENDBRANCH  38  41
ENDBRANCH  30  38
BRANCH  36  48
ATOM     48  C   UNL     1       7.578   1.221  -1.479  1.00  0.00     0.159 C 
ATOM     49  O   UNL     1       8.236   1.545  -2.468  1.00  0.00    -0.295 OA
BRANCH  48  50
ATOM     50  C   UNL     1       8.306   1.121  -0.136  1.00  0.00    -0.001 C 
ATOM     51  H   UNL     1       7.735   1.633   0.640  1.00  0.00     0.031 H 
ATOM     52  H   UNL     1       9.286   1.595  -0.188  1.00  0.00     0.031 H 
ATOM     53  H   UNL     1       8.427   0.079   0.160  1.00  0.00     0.031 H 
ENDBRANCH  48  50
ENDBRANCH  36  48
ENDBRANCH  28  29
ENDBRANCH  25  28
ENDBRANCH   1  25
TORSDOF 14
