MODEL 1
REMARK VINA RESULT:      -8.7      0.000      0.000
REMARK  Name = LIGAND
REMARK  7 active torsions:
REMARK  status: ('A' for Active; 'I' for Inactive)
REMARK    1  A    between atoms: C_1  and  C_26
REMARK    2  A    between atoms: C_6  and  C_11
REMARK    3  A    between atoms: C_11  and  N_14
REMARK    4  A    between atoms: C_24  and  C_35
REMARK    5  A    between atoms: C_40  and  C_42
REMARK    6  A    between atoms: C_42  and  C_47
REMARK    7  A    between atoms: C_47  and  C_50
REMARK                            x       y       z     vdW  Elec       q    Type
REMARK                         _______ _______ _______ _____ _____    ______ ____
ROOT
ATOM      1  C   UNL     1      42.532 111.064  83.158  0.00  0.00    +0.022 C 
ATOM      2  C   UNL     1      41.435 110.413  82.227  0.00  0.00    +0.027 C 
ATOM      3  C   UNL     1      40.110 110.216  82.987  0.00  0.00    +0.108 C 
ATOM      4  N   UNL     1      39.600 111.485  83.600  0.00  0.00    -0.297 N 
ATOM      5  C   UNL     1      38.399 112.072  83.168  0.00  0.00    +0.248 C 
ATOM      6  O   UNL     1      37.720 111.600  82.266  0.00  0.00    -0.270 OA
ATOM      7  C   UNL     1      40.584 112.005  84.584  0.00  0.00    +0.108 C 
ATOM      8  C   UNL     1      41.925 112.363  83.834  0.00  0.00    +0.027 C 
ENDROOT
BRANCH   1   9
ATOM      9  C   UNL     1      43.862 111.293  82.408  0.00  0.00    -0.044 A 
ATOM     10  C   UNL     1      45.097 111.334  83.182  0.00  0.00    +0.004 A 
ATOM     11  C   UNL     1      46.363 111.550  82.542  0.00  0.00    +0.000 A 
ATOM     12  C   UNL     1      46.446 111.732  81.130  0.00  0.00    +0.002 A 
ATOM     13  C   UNL     1      45.242 111.699  80.328  0.00  0.00    -0.065 A 
ATOM     14  C   UNL     1      43.954 111.481  80.974  0.00  0.00    +0.005 A 
BRANCH  13  15
ATOM     15  C   UNL     1      45.328 111.898  78.837  0.00  0.00    -0.051 C 
BRANCH  15  16
ATOM     16  N   UNL     1      44.212 112.709  78.260  0.00  0.00    +0.381 N 
ATOM     17  H   UNL     1      44.465 113.108  77.369  0.00  0.00    -0.090 HD
ATOM     18  H   UNL     1      43.976 113.485  78.865  0.00  0.00    -0.090 HD
ATOM     19  H   UNL     1      43.373 112.163  78.123  0.00  0.00    -0.090 HD
ENDBRANCH  15  16
ENDBRANCH  13  15
ENDBRANCH   1   9
BRANCH   5  20
ATOM     20  C   UNL     1      37.799 113.306  83.782  0.00  0.00    +0.055 A 
ATOM     21  C   UNL     1      37.426 113.332  85.156  0.00  0.00    +0.123 A 
ATOM     22  N   UNL     1      36.860 114.390  85.767  0.00  0.00    -0.262 NA
ATOM     23  C   UNL     1      36.614 115.500  85.049  0.00  0.00    +0.114 A 
ATOM     24  C   UNL     1      36.931 115.630  83.666  0.00  0.00    -0.028 A 
ATOM     25  C   UNL     1      37.547 114.490  83.008  0.00  0.00    +0.019 A 
BRANCH  24  26
ATOM     26  C   UNL     1      36.613 116.887  82.923  0.00  0.00    +0.041 C 
BRANCH  26  27
ATOM     27  C   UNL     1      35.118 117.171  82.840  0.00  0.00    +0.040 C 
BRANCH  27  28
ATOM     28  C   UNL     1      34.259 116.135  82.158  0.00  0.00    -0.047 A 
ATOM     29  C   UNL     1      34.349 115.952  80.711  0.00  0.00    +0.003 A 
ATOM     30  C   UNL     1      33.543 114.968  80.054  0.00  0.00    +0.000 A 
ATOM     31  C   UNL     1      32.621 114.135  80.805  0.00  0.00    +0.000 A 
ATOM     32  C   UNL     1      32.522 114.303  82.231  0.00  0.00    +0.000 A 
ATOM     33  C   UNL     1      33.348 115.310  82.903  0.00  0.00    +0.003 A 
ENDBRANCH  27  28
ENDBRANCH  26  27
ENDBRANCH  24  26
ENDBRANCH   5  20
TORSDOF 7
ENDMDL
MODEL 2
REMARK VINA RESULT:      -8.6      3.914      6.497
REMARK  Name = LIGAND
REMARK  7 active torsions:
REMARK  status: ('A' for Active; 'I' for Inactive)
REMARK    1  A    between atoms: C_1  and  C_26
REMARK    2  A    between atoms: C_6  and  C_11
REMARK    3  A    between atoms: C_11  and  N_14
REMARK    4  A    between atoms: C_24  and  C_35
REMARK    5  A    between atoms: C_40  and  C_42
REMARK    6  A    between atoms: C_42  and  C_47
REMARK    7  A    between atoms: C_47  and  C_50
REMARK                            x       y       z     vdW  Elec       q    Type
REMARK                         _______ _______ _______ _____ _____    ______ ____
ROOT
ATOM      1  C   UNL     1      42.576 110.441  82.892  0.00  0.00    +0.022 C 
ATOM      2  C   UNL     1      41.376 110.809  81.933  0.00  0.00    +0.027 C 
ATOM      3  C   UNL     1      40.021 110.508  82.602  0.00  0.00    +0.108 C 
ATOM      4  N   UNL     1      39.867 111.187  83.929  0.00  0.00    -0.297 N 
ATOM      5  C   UNL     1      38.898 112.184  84.130  0.00  0.00    +0.248 C 
ATOM      6  O   UNL     1      38.148 112.565  83.240  0.00  0.00    -0.270 OA
ATOM      7  C   UNL     1      40.919 110.716  84.866  0.00  0.00    +0.108 C 
ATOM      8  C   UNL     1      42.335 111.126  84.301  0.00  0.00    +0.027 C 
ENDROOT
BRANCH   1   9
ATOM      9  C   UNL     1      43.944 110.757  82.251  0.00  0.00    -0.044 A 
ATOM     10  C   UNL     1      45.149 110.533  83.040  0.00  0.00    +0.004 A 
ATOM     11  C   UNL     1      46.448 110.814  82.500  0.00  0.00    +0.000 A 
ATOM     12  C   UNL     1      46.595 111.323  81.177  0.00  0.00    +0.002 A 
ATOM     13  C   UNL     1      45.422 111.560  80.362  0.00  0.00    -0.065 A 
ATOM     14  C   UNL     1      44.100 111.276  80.907  0.00  0.00    +0.005 A 
BRANCH  13  15
ATOM     15  C   UNL     1      45.575 112.104  78.966  0.00  0.00    -0.051 C 
BRANCH  15  16
ATOM     16  N   UNL     1      44.752 111.397  77.937  0.00  0.00    +0.381 N 
ATOM     17  H   UNL     1      44.110 112.026  77.480  0.00  0.00    -0.090 HD
ATOM     18  H   UNL     1      44.190 110.670  78.359  0.00  0.00    -0.090 HD
ATOM     19  H   UNL     1      45.321 110.966  77.222  0.00  0.00    -0.090 HD
ENDBRANCH  15  16
ENDBRANCH  13  15
ENDBRANCH   1   9
BRANCH   5  20
ATOM     20  C   UNL     1      38.647 112.859  85.450  0.00  0.00    +0.055 A 
ATOM     21  C   UNL     1      37.354 112.844  86.045  0.00  0.00    +0.123 A 
ATOM     22  N   UNL     1      37.049 113.447  87.209  0.00  0.00    -0.262 NA
ATOM     23  C   UNL     1      38.011 114.121  87.864  0.00  0.00    +0.114 A 
ATOM     24  C   UNL     1      39.355 114.225  87.399  0.00  0.00    -0.028 A 
ATOM     25  C   UNL     1      39.684 113.569  86.144  0.00  0.00    +0.019 A 
BRANCH  24  26
ATOM     26  C   UNL     1      40.371 115.006  88.167  0.00  0.00    +0.041 C 
BRANCH  26  27
ATOM     27  C   UNL     1      39.909 115.366  89.574  0.00  0.00    +0.040 C 
BRANCH  27  28
ATOM     28  C   UNL     1      40.797 114.946  90.719  0.00  0.00    -0.047 A 
ATOM     29  C   UNL     1      41.144 113.537  90.892  0.00  0.00    +0.003 A 
ATOM     30  C   UNL     1      41.992 113.127  91.970  0.00  0.00    +0.000 A 
ATOM     31  C   UNL     1      42.522 114.095  92.913  0.00  0.00    +0.000 A 
ATOM     32  C   UNL     1      42.189 115.487  92.755  0.00  0.00    +0.000 A 
ATOM     33  C   UNL     1      41.323 115.906  91.651  0.00  0.00    +0.003 A 
ENDBRANCH  27  28
ENDBRANCH  26  27
ENDBRANCH  24  26
ENDBRANCH   5  20
TORSDOF 7
ENDMDL
MODEL 3
REMARK VINA RESULT:      -8.3      0.616      1.098
REMARK  Name = LIGAND
REMARK  7 active torsions:
REMARK  status: ('A' for Active; 'I' for Inactive)
REMARK    1  A    between atoms: C_1  and  C_26
REMARK    2  A    between atoms: C_6  and  C_11
REMARK    3  A    between atoms: C_11  and  N_14
REMARK    4  A    between atoms: C_24  and  C_35
REMARK    5  A    between atoms: C_40  and  C_42
REMARK    6  A    between atoms: C_42  and  C_47
REMARK    7  A    between atoms: C_47  and  C_50
REMARK                            x       y       z     vdW  Elec       q    Type
REMARK                         _______ _______ _______ _____ _____    ______ ____
ROOT
ATOM      1  C   UNL     1      42.013 110.807  83.384  0.00  0.00    +0.022 C 
ATOM      2  C   UNL     1      40.862 110.205  82.486  0.00  0.00    +0.027 C 
ATOM      3  C   UNL     1      39.539 110.113  83.270  0.00  0.00    +0.108 C 
ATOM      4  N   UNL     1      39.121 111.427  83.857  0.00  0.00    -0.297 N 
ATOM      5  C   UNL     1      37.953 112.079  83.428  0.00  0.00    +0.248 C 
ATOM      6  O   UNL     1      37.232 111.630  82.548  0.00  0.00    -0.270 OA
ATOM      7  C   UNL     1      40.152 111.906  84.814  0.00  0.00    +0.108 C 
ATOM      8  C   UNL     1      41.501 112.159  84.036  0.00  0.00    +0.027 C 
ENDROOT
BRANCH   1   9
ATOM      9  C   UNL     1      43.343 110.932  82.611  0.00  0.00    -0.044 A 
ATOM     10  C   UNL     1      44.566 110.468  83.253  0.00  0.00    +0.004 A 
ATOM     11  C   UNL     1      45.833 110.563  82.586  0.00  0.00    +0.000 A 
ATOM     12  C   UNL     1      45.928 111.117  81.277  0.00  0.00    +0.002 A 
ATOM     13  C   UNL     1      44.736 111.590  80.606  0.00  0.00    -0.065 A 
ATOM     14  C   UNL     1      43.448 111.496  81.280  0.00  0.00    +0.005 A 
BRANCH  13  15
ATOM     15  C   UNL     1      44.837 112.181  79.224  0.00  0.00    -0.051 C 
BRANCH  15  16
ATOM     16  N   UNL     1      45.057 111.175  78.140  0.00  0.00    +0.381 N 
ATOM     17  H   UNL     1      44.881 110.237  78.465  0.00  0.00    -0.090 HD
ATOM     18  H   UNL     1      46.015 111.192  77.817  0.00  0.00    -0.090 HD
ATOM     19  H   UNL     1      44.462 111.338  77.340  0.00  0.00    -0.090 HD
ENDBRANCH  15  16
ENDBRANCH  13  15
ENDBRANCH   1   9
BRANCH   5  20
ATOM     20  C   UNL     1      37.443 113.364  84.019  0.00  0.00    +0.055 A 
ATOM     21  C   UNL     1      37.102 113.450  85.399  0.00  0.00    +0.123 A 
ATOM     22  N   UNL     1      36.616 114.556  85.991  0.00  0.00    -0.262 NA
ATOM     23  C   UNL     1      36.422 115.660  85.248  0.00  0.00    +0.114 A 
ATOM     24  C   UNL     1      36.716 115.733  83.855  0.00  0.00    -0.028 A 
ATOM     25  C   UNL     1      37.247 114.539  83.217  0.00  0.00    +0.019 A 
BRANCH  24  26
ATOM     26  C   UNL     1      36.460 116.987  83.083  0.00  0.00    +0.041 C 
BRANCH  26  27
ATOM     27  C   UNL     1      34.980 117.228  82.810  0.00  0.00    +0.040 C 
BRANCH  27  28
ATOM     28  C   UNL     1      34.210 116.110  82.154  0.00  0.00    -0.047 A 
ATOM     29  C   UNL     1      33.249 115.332  82.935  0.00  0.00    +0.003 A 
ATOM     30  C   UNL     1      32.506 114.273  82.322  0.00  0.00    +0.000 A 
ATOM     31  C   UNL     1      32.691 113.946  80.919  0.00  0.00    +0.000 A 
ATOM     32  C   UNL     1      33.633 114.704  80.138  0.00  0.00    +0.000 A 
ATOM     33  C   UNL     1      34.391 115.788  80.766  0.00  0.00    +0.003 A 
ENDBRANCH  27  28
ENDBRANCH  26  27
ENDBRANCH  24  26
ENDBRANCH   5  20
TORSDOF 7
ENDMDL
MODEL 4
REMARK VINA RESULT:      -8.3      0.914      1.476
REMARK  Name = LIGAND
REMARK  7 active torsions:
REMARK  status: ('A' for Active; 'I' for Inactive)
REMARK    1  A    between atoms: C_1  and  C_26
REMARK    2  A    between atoms: C_6  and  C_11
REMARK    3  A    between atoms: C_11  and  N_14
REMARK    4  A    between atoms: C_24  and  C_35
REMARK    5  A    between atoms: C_40  and  C_42
REMARK    6  A    between atoms: C_42  and  C_47
REMARK    7  A    between atoms: C_47  and  C_50
REMARK                            x       y       z     vdW  Elec       q    Type
REMARK                         _______ _______ _______ _____ _____    ______ ____
ROOT
ATOM      1  C   UNL     1      42.268 110.883  83.029  0.00  0.00    +0.022 C 
ATOM      2  C   UNL     1      41.182 110.370  82.003  0.00  0.00    +0.027 C 
ATOM      3  C   UNL     1      39.799 110.255  82.673  0.00  0.00    +0.108 C 
ATOM      4  N   UNL     1      39.359 111.535  83.315  0.00  0.00    -0.297 N 
ATOM      5  C   UNL     1      38.241 112.242  82.842  0.00  0.00    +0.248 C 
ATOM      6  O   UNL     1      37.584 111.870  81.879  0.00  0.00    -0.270 OA
ATOM      7  C   UNL     1      40.318 111.925  84.381  0.00  0.00    +0.108 C 
ATOM      8  C   UNL     1      41.730 112.199  83.730  0.00  0.00    +0.027 C 
ENDROOT
BRANCH   1   9
ATOM      9  C   UNL     1      43.657 111.029  82.372  0.00  0.00    -0.044 A 
ATOM     10  C   UNL     1      44.831 110.618  83.132  0.00  0.00    +0.004 A 
ATOM     11  C   UNL     1      46.149 110.735  82.577  0.00  0.00    +0.000 A 
ATOM     12  C   UNL     1      46.345 111.259  81.266  0.00  0.00    +0.002 A 
ATOM     13  C   UNL     1      45.204 111.680  80.480  0.00  0.00    -0.065 A 
ATOM     14  C   UNL     1      43.864 111.563  81.041  0.00  0.00    +0.005 A 
BRANCH  13  15
ATOM     15  C   UNL     1      45.411 112.240  79.097  0.00  0.00    -0.051 C 
BRANCH  15  16
ATOM     16  N   UNL     1      45.004 111.317  77.993  0.00  0.00    +0.381 N 
ATOM     17  H   UNL     1      45.179 110.353  78.233  0.00  0.00    -0.090 HD
ATOM     18  H   UNL     1      45.532 111.503  77.151  0.00  0.00    -0.090 HD
ATOM     19  H   UNL     1      44.024 111.402  77.765  0.00  0.00    -0.090 HD
ENDBRANCH  15  16
ENDBRANCH  13  15
ENDBRANCH   1   9
BRANCH   5  20
ATOM     20  C   UNL     1      37.708 113.495  83.479  0.00  0.00    +0.055 A 
ATOM     21  C   UNL     1      37.670 113.637  84.895  0.00  0.00    +0.123 A 
ATOM     22  N   UNL     1      37.183 114.717  85.534  0.00  0.00    -0.262 NA
ATOM     23  C   UNL     1      36.687 115.734  84.808  0.00  0.00    +0.114 A 
ATOM     24  C   UNL     1      36.656 115.743  83.383  0.00  0.00    -0.028 A 
ATOM     25  C   UNL     1      37.187 114.579  82.693  0.00  0.00    +0.019 A 
BRANCH  24  26
ATOM     26  C   UNL     1      36.074 116.900  82.638  0.00  0.00    +0.041 C 
BRANCH  26  27
ATOM     27  C   UNL     1      34.726 116.583  82.001  0.00  0.00    +0.040 C 
BRANCH  27  28
ATOM     28  C   UNL     1      33.699 115.900  82.868  0.00  0.00    -0.047 A 
ATOM     29  C   UNL     1      33.095 116.621  83.987  0.00  0.00    +0.003 A 
ATOM     30  C   UNL     1      32.113 115.986  84.813  0.00  0.00    +0.000 A 
ATOM     31  C   UNL     1      31.698 114.617  84.561  0.00  0.00    +0.000 A 
ATOM     32  C   UNL     1      32.284 113.895  83.462  0.00  0.00    +0.000 A 
ATOM     33  C   UNL     1      33.287 114.546  82.617  0.00  0.00    +0.003 A 
ENDBRANCH  27  28
ENDBRANCH  26  27
ENDBRANCH  24  26
ENDBRANCH   5  20
TORSDOF 7
ENDMDL
MODEL 5
REMARK VINA RESULT:      -8.1      3.752      6.357
REMARK  Name = LIGAND
REMARK  7 active torsions:
REMARK  status: ('A' for Active; 'I' for Inactive)
REMARK    1  A    between atoms: C_1  and  C_26
REMARK    2  A    between atoms: C_6  and  C_11
REMARK    3  A    between atoms: C_11  and  N_14
REMARK    4  A    between atoms: C_24  and  C_35
REMARK    5  A    between atoms: C_40  and  C_42
REMARK    6  A    between atoms: C_42  and  C_47
REMARK    7  A    between atoms: C_47  and  C_50
REMARK                            x       y       z     vdW  Elec       q    Type
REMARK                         _______ _______ _______ _____ _____    ______ ____
ROOT
ATOM      1  C   UNL     1      42.573 110.492  82.854  0.00  0.00    +0.022 C 
ATOM      2  C   UNL     1      41.390 110.669  81.822  0.00  0.00    +0.027 C 
ATOM      3  C   UNL     1      40.030 110.373  82.483  0.00  0.00    +0.108 C 
ATOM      4  N   UNL     1      39.791 111.197  83.710  0.00  0.00    -0.297 N 
ATOM      5  C   UNL     1      38.762 112.152  83.758  0.00  0.00    +0.248 C 
ATOM      6  O   UNL     1      38.025 112.378  82.807  0.00  0.00    -0.270 OA
ATOM      7  C   UNL     1      40.832 110.906  84.729  0.00  0.00    +0.108 C 
ATOM      8  C   UNL     1      42.243 111.327  84.160  0.00  0.00    +0.027 C 
ENDROOT
BRANCH   1   9
ATOM      9  C   UNL     1      43.944 110.808  82.220  0.00  0.00    -0.044 A 
ATOM     10  C   UNL     1      45.144 110.593  83.018  0.00  0.00    +0.004 A 
ATOM     11  C   UNL     1      46.446 110.875  82.485  0.00  0.00    +0.000 A 
ATOM     12  C   UNL     1      46.599 111.375  81.159  0.00  0.00    +0.002 A 
ATOM     13  C   UNL     1      45.431 111.603  80.335  0.00  0.00    -0.065 A 
ATOM     14  C   UNL     1      44.107 111.319  80.873  0.00  0.00    +0.005 A 
BRANCH  13  15
ATOM     15  C   UNL     1      45.592 112.138  78.936  0.00  0.00    -0.051 C 
BRANCH  15  16
ATOM     16  N   UNL     1      44.303 112.358  78.211  0.00  0.00    +0.381 N 
ATOM     17  H   UNL     1      43.896 111.487  77.906  0.00  0.00    -0.090 HD
ATOM     18  H   UNL     1      44.445 112.915  77.379  0.00  0.00    -0.090 HD
ATOM     19  H   UNL     1      43.619 112.831  78.783  0.00  0.00    -0.090 HD
ENDBRANCH  15  16
ENDBRANCH  13  15
ENDBRANCH   1   9
BRANCH   5  20
ATOM     20  C   UNL     1      38.426 112.966  84.978  0.00  0.00    +0.055 A 
ATOM     21  C   UNL     1      37.092 113.398  85.224  0.00  0.00    +0.123 A 
ATOM     22  N   UNL     1      36.723 114.149  86.278  0.00  0.00    -0.262 NA
ATOM     23  C   UNL     1      37.659 114.535  87.162  0.00  0.00    +0.114 A 
ATOM     24  C   UNL     1      39.036 114.182  87.055  0.00  0.00    -0.028 A 
ATOM     25  C   UNL     1      39.434 113.366  85.920  0.00  0.00    +0.019 A 
BRANCH  24  26
ATOM     26  C   UNL     1      40.029 114.660  88.064  0.00  0.00    +0.041 C 
BRANCH  26  27
ATOM     27  C   UNL     1      39.504 114.601  89.493  0.00  0.00    +0.040 C 
BRANCH  27  28
ATOM     28  C   UNL     1      40.526 114.614  90.603  0.00  0.00    -0.047 A 
ATOM     29  C   UNL     1      40.723 115.825  91.397  0.00  0.00    +0.003 A 
ATOM     30  C   UNL     1      41.685 115.846  92.458  0.00  0.00    +0.000 A 
ATOM     31  C   UNL     1      42.484 114.673  92.766  0.00  0.00    +0.000 A 
ATOM     32  C   UNL     1      42.300 113.474  91.992  0.00  0.00    +0.000 A 
ATOM     33  C   UNL     1      41.315 113.452  90.908  0.00  0.00    +0.003 A 
ENDBRANCH  27  28
ENDBRANCH  26  27
ENDBRANCH  24  26
ENDBRANCH   5  20
TORSDOF 7
ENDMDL
MODEL 6
REMARK VINA RESULT:      -8.1      3.245      4.500
REMARK  Name = LIGAND
REMARK  7 active torsions:
REMARK  status: ('A' for Active; 'I' for Inactive)
REMARK    1  A    between atoms: C_1  and  C_26
REMARK    2  A    between atoms: C_6  and  C_11
REMARK    3  A    between atoms: C_11  and  N_14
REMARK    4  A    between atoms: C_24  and  C_35
REMARK    5  A    between atoms: C_40  and  C_42
REMARK    6  A    between atoms: C_42  and  C_47
REMARK    7  A    between atoms: C_47  and  C_50
REMARK                            x       y       z     vdW  Elec       q    Type
REMARK                         _______ _______ _______ _____ _____    ______ ____
ROOT
ATOM      1  C   UNL     1      43.834 111.702  85.453  0.00  0.00    +0.022 C 
ATOM      2  C   UNL     1      43.330 110.524  86.376  0.00  0.00    +0.027 C 
ATOM      3  C   UNL     1      43.199 110.986  87.840  0.00  0.00    +0.108 C 
ATOM      4  N   UNL     1      42.321 112.190  87.991  0.00  0.00    -0.297 N 
ATOM      5  C   UNL     1      41.103 112.122  88.687  0.00  0.00    +0.248 C 
ATOM      6  O   UNL     1      40.684 111.086  89.186  0.00  0.00    -0.270 OA
ATOM      7  C   UNL     1      42.892 113.333  87.233  0.00  0.00    +0.108 C 
ATOM      8  C   UNL     1      42.917 112.972  85.697  0.00  0.00    +0.027 C 
ENDROOT
BRANCH   1   9
ATOM      9  C   UNL     1      43.949 111.268  83.976  0.00  0.00    -0.044 A 
ATOM     10  C   UNL     1      42.863 110.489  83.395  0.00  0.00    +0.004 A 
ATOM     11  C   UNL     1      42.916 110.051  82.029  0.00  0.00    +0.000 A 
ATOM     12  C   UNL     1      44.034 110.367  81.204  0.00  0.00    +0.002 A 
ATOM     13  C   UNL     1      45.133 111.139  81.745  0.00  0.00    -0.065 A 
ATOM     14  C   UNL     1      45.084 111.584  83.132  0.00  0.00    +0.005 A 
BRANCH  13  15
ATOM     15  C   UNL     1      46.319 111.467  80.876  0.00  0.00    -0.051 C 
BRANCH  15  16
ATOM     16  N   UNL     1      45.991 111.629  79.426  0.00  0.00    +0.381 N 
ATOM     17  H   UNL     1      46.403 112.466  79.044  0.00  0.00    -0.090 HD
ATOM     18  H   UNL     1      44.993 111.710  79.286  0.00  0.00    -0.090 HD
ATOM     19  H   UNL     1      46.315 110.849  78.871  0.00  0.00    -0.090 HD
ENDBRANCH  15  16
ENDBRANCH  13  15
ENDBRANCH   1   9
BRANCH   5  20
ATOM     20  C   UNL     1      40.207 113.305  88.931  0.00  0.00    +0.055 A 
ATOM     21  C   UNL     1      40.427 114.173  90.038  0.00  0.00    +0.123 A 
ATOM     22  N   UNL     1      39.653 115.234  90.333  0.00  0.00    -0.262 NA
ATOM     23  C   UNL     1      38.592 115.503  89.552  0.00  0.00    +0.114 A 
ATOM     24  C   UNL     1      38.241 114.729  88.407  0.00  0.00    -0.028 A 
ATOM     25  C   UNL     1      39.081 113.587  88.085  0.00  0.00    +0.019 A 
BRANCH  24  26
ATOM     26  C   UNL     1      37.037 115.072  87.591  0.00  0.00    +0.041 C 
BRANCH  26  27
ATOM     27  C   UNL     1      36.886 114.199  86.352  0.00  0.00    +0.040 C 
BRANCH  27  28
ATOM     28  C   UNL     1      37.002 114.881  85.011  0.00  0.00    -0.047 A 
ATOM     29  C   UNL     1      37.884 114.326  83.986  0.00  0.00    +0.003 A 
ATOM     30  C   UNL     1      37.997 114.960  82.707  0.00  0.00    +0.000 A 
ATOM     31  C   UNL     1      37.245 116.164  82.402  0.00  0.00    +0.000 A 
ATOM     32  C   UNL     1      36.372 116.722  83.402  0.00  0.00    +0.000 A 
ATOM     33  C   UNL     1      36.256 116.072  84.709  0.00  0.00    +0.003 A 
ENDBRANCH  27  28
ENDBRANCH  26  27
ENDBRANCH  24  26
ENDBRANCH   5  20
TORSDOF 7
ENDMDL
MODEL 7
REMARK VINA RESULT:      -8.0      2.739      3.713
REMARK  Name = LIGAND
REMARK  7 active torsions:
REMARK  status: ('A' for Active; 'I' for Inactive)
REMARK    1  A    between atoms: C_1  and  C_26
REMARK    2  A    between atoms: C_6  and  C_11
REMARK    3  A    between atoms: C_11  and  N_14
REMARK    4  A    between atoms: C_24  and  C_35
REMARK    5  A    between atoms: C_40  and  C_42
REMARK    6  A    between atoms: C_42  and  C_47
REMARK    7  A    between atoms: C_47  and  C_50
REMARK                            x       y       z     vdW  Elec       q    Type
REMARK                         _______ _______ _______ _____ _____    ______ ____
ROOT
ATOM      1  C   UNL     1      41.834 110.669  82.962  0.00  0.00    +0.022 C 
ATOM      2  C   UNL     1      40.863 110.315  81.767  0.00  0.00    +0.027 C 
ATOM      3  C   UNL     1      39.405 110.207  82.253  0.00  0.00    +0.108 C 
ATOM      4  N   UNL     1      38.940 111.440  82.967  0.00  0.00    -0.297 N 
ATOM      5  C   UNL     1      37.917 112.246  82.440  0.00  0.00    +0.248 C 
ATOM      6  O   UNL     1      37.370 112.004  81.373  0.00  0.00    -0.270 OA
ATOM      7  C   UNL     1      39.775 111.673  84.173  0.00  0.00    +0.108 C 
ATOM      8  C   UNL     1      41.265 111.936  83.726  0.00  0.00    +0.027 C 
ENDROOT
BRANCH   1   9
ATOM      9  C   UNL     1      43.298 110.806  82.493  0.00  0.00    -0.044 A 
ATOM     10  C   UNL     1      44.360 110.415  83.411  0.00  0.00    +0.004 A 
ATOM     11  C   UNL     1      45.740 110.526  83.034  0.00  0.00    +0.000 A 
ATOM     12  C   UNL     1      46.109 111.024  81.750  0.00  0.00    +0.002 A 
ATOM     13  C   UNL     1      45.083 111.424  80.811  0.00  0.00    -0.065 A 
ATOM     14  C   UNL     1      43.680 111.314  81.190  0.00  0.00    +0.005 A 
BRANCH  13  15
ATOM     15  C   UNL     1      45.472 111.957  79.456  0.00  0.00    -0.051 C 
BRANCH  15  16
ATOM     16  N   UNL     1      46.546 112.996  79.491  0.00  0.00    +0.381 N 
ATOM     17  H   UNL     1      46.569 113.475  80.378  0.00  0.00    -0.090 HD
ATOM     18  H   UNL     1      46.388 113.705  78.787  0.00  0.00    -0.090 HD
ATOM     19  H   UNL     1      47.463 112.605  79.330  0.00  0.00    -0.090 HD
ENDBRANCH  15  16
ENDBRANCH  13  15
ENDBRANCH   1   9
BRANCH   5  20
ATOM     20  C   UNL     1      37.359 113.457  83.135  0.00  0.00    +0.055 A 
ATOM     21  C   UNL     1      37.935 114.744  82.937  0.00  0.00    +0.123 A 
ATOM     22  N   UNL     1      37.506 115.866  83.545  0.00  0.00    -0.262 NA
ATOM     23  C   UNL     1      36.475 115.787  84.405  0.00  0.00    +0.114 A 
ATOM     24  C   UNL     1      35.793 114.573  84.706  0.00  0.00    -0.028 A 
ATOM     25  C   UNL     1      36.253 113.362  84.046  0.00  0.00    +0.019 A 
BRANCH  24  26
ATOM     26  C   UNL     1      34.665 114.552  85.686  0.00  0.00    +0.041 C 
BRANCH  26  27
ATOM     27  C   UNL     1      34.402 115.912  86.323  0.00  0.00    +0.040 C 
BRANCH  27  28
ATOM     28  C   UNL     1      33.392 115.964  87.441  0.00  0.00    -0.047 A 
ATOM     29  C   UNL     1      33.743 115.451  88.764  0.00  0.00    +0.003 A 
ATOM     30  C   UNL     1      32.795 115.502  89.836  0.00  0.00    +0.000 A 
ATOM     31  C   UNL     1      31.469 116.059  89.634  0.00  0.00    +0.000 A 
ATOM     32  C   UNL     1      31.109 116.568  88.337  0.00  0.00    +0.000 A 
ATOM     33  C   UNL     1      32.080 116.517  87.241  0.00  0.00    +0.003 A 
ENDBRANCH  27  28
ENDBRANCH  26  27
ENDBRANCH  24  26
ENDBRANCH   5  20
TORSDOF 7
ENDMDL
MODEL 8
REMARK VINA RESULT:      -8.0      0.779      1.326
REMARK  Name = LIGAND
REMARK  7 active torsions:
REMARK  status: ('A' for Active; 'I' for Inactive)
REMARK    1  A    between atoms: C_1  and  C_26
REMARK    2  A    between atoms: C_6  and  C_11
REMARK    3  A    between atoms: C_11  and  N_14
REMARK    4  A    between atoms: C_24  and  C_35
REMARK    5  A    between atoms: C_40  and  C_42
REMARK    6  A    between atoms: C_42  and  C_47
REMARK    7  A    between atoms: C_47  and  C_50
REMARK                            x       y       z     vdW  Elec       q    Type
REMARK                         _______ _______ _______ _____ _____    ______ ____
ROOT
ATOM      1  C   UNL     1      42.516 110.999  83.224  0.00  0.00    +0.022 C 
ATOM      2  C   UNL     1      41.428 110.230  82.376  0.00  0.00    +0.027 C 
ATOM      3  C   UNL     1      40.089 110.153  83.134  0.00  0.00    +0.108 C 
ATOM      4  N   UNL     1      39.582 111.499  83.552  0.00  0.00    -0.297 N 
ATOM      5  C   UNL     1      38.393 112.028  83.022  0.00  0.00    +0.248 C 
ATOM      6  O   UNL     1      37.724 111.438  82.184  0.00  0.00    -0.270 OA
ATOM      7  C   UNL     1      40.555 112.146  84.470  0.00  0.00    +0.108 C 
ATOM      8  C   UNL     1      41.911 112.385  83.699  0.00  0.00    +0.027 C 
ENDROOT
BRANCH   1   9
ATOM      9  C   UNL     1      43.860 111.109  82.472  0.00  0.00    -0.044 A 
ATOM     10  C   UNL     1      45.082 110.746  83.178  0.00  0.00    +0.004 A 
ATOM     11  C   UNL     1      46.361 110.834  82.534  0.00  0.00    +0.000 A 
ATOM     12  C   UNL     1      46.470 111.281  81.185  0.00  0.00    +0.002 A 
ATOM     13  C   UNL     1      45.279 111.652  80.451  0.00  0.00    -0.065 A 
ATOM     14  C   UNL     1      43.978 111.565  81.102  0.00  0.00    +0.005 A 
BRANCH  13  15
ATOM     15  C   UNL     1      45.394 112.132  79.027  0.00  0.00    -0.051 C 
BRANCH  15  16
ATOM     16  N   UNL     1      44.991 111.120  78.004  0.00  0.00    +0.381 N 
ATOM     17  H   UNL     1      44.960 111.520  77.079  0.00  0.00    -0.090 HD
ATOM     18  H   UNL     1      44.064 110.761  78.193  0.00  0.00    -0.090 HD
ATOM     19  H   UNL     1      45.623 110.332  77.975  0.00  0.00    -0.090 HD
ENDBRANCH  15  16
ENDBRANCH  13  15
ENDBRANCH   1   9
BRANCH   5  20
ATOM     20  C   UNL     1      37.795 113.341  83.445  0.00  0.00    +0.055 A 
ATOM     21  C   UNL     1      37.960 113.826  84.773  0.00  0.00    +0.123 A 
ATOM     22  N   UNL     1      37.433 114.977  85.229  0.00  0.00    -0.262 NA
ATOM     23  C   UNL     1      36.691 115.728  84.396  0.00  0.00    +0.114 A 
ATOM     24  C   UNL     1      36.436 115.379  83.038  0.00  0.00    -0.028 A 
ATOM     25  C   UNL     1      37.011 114.139  82.544  0.00  0.00    +0.019 A 
BRANCH  24  26
ATOM     26  C   UNL     1      35.587 116.251  82.171  0.00  0.00    +0.041 C 
BRANCH  26  27
ATOM     27  C   UNL     1      34.095 115.998  82.347  0.00  0.00    +0.040 C 
BRANCH  27  28
ATOM     28  C   UNL     1      33.444 115.027  81.393  0.00  0.00    -0.047 A 
ATOM     29  C   UNL     1      32.354 114.170  81.857  0.00  0.00    +0.003 A 
ATOM     30  C   UNL     1      31.723 113.251  80.959  0.00  0.00    +0.000 A 
ATOM     31  C   UNL     1      32.151 113.146  79.575  0.00  0.00    +0.000 A 
ATOM     32  C   UNL     1      33.223 113.984  79.104  0.00  0.00    +0.000 A 
ATOM     33  C   UNL     1      33.867 114.926  80.023  0.00  0.00    +0.003 A 
ENDBRANCH  27  28
ENDBRANCH  26  27
ENDBRANCH  24  26
ENDBRANCH   5  20
TORSDOF 7
ENDMDL
MODEL 9
REMARK VINA RESULT:      -8.0      3.060      5.656
REMARK  Name = LIGAND
REMARK  7 active torsions:
REMARK  status: ('A' for Active; 'I' for Inactive)
REMARK    1  A    between atoms: C_1  and  C_26
REMARK    2  A    between atoms: C_6  and  C_11
REMARK    3  A    between atoms: C_11  and  N_14
REMARK    4  A    between atoms: C_24  and  C_35
REMARK    5  A    between atoms: C_40  and  C_42
REMARK    6  A    between atoms: C_42  and  C_47
REMARK    7  A    between atoms: C_47  and  C_50
REMARK                            x       y       z     vdW  Elec       q    Type
REMARK                         _______ _______ _______ _____ _____    ______ ____
ROOT
ATOM      1  C   UNL     1      42.606 110.928  83.286  0.00  0.00    +0.022 C 
ATOM      2  C   UNL     1      41.457 110.523  82.281  0.00  0.00    +0.027 C 
ATOM      3  C   UNL     1      40.147 110.217  83.033  0.00  0.00    +0.108 C 
ATOM      4  N   UNL     1      39.708 111.347  83.913  0.00  0.00    -0.297 N 
ATOM      5  C   UNL     1      38.520 112.052  83.657  0.00  0.00    +0.248 C 
ATOM      6  O   UNL     1      37.796 111.801  82.702  0.00  0.00    -0.270 OA
ATOM      7  C   UNL     1      40.740 111.616  84.947  0.00  0.00    +0.108 C 
ATOM      8  C   UNL     1      42.072 112.077  84.238  0.00  0.00    +0.027 C 
ENDROOT
BRANCH   1   9
ATOM      9  C   UNL     1      43.922 111.263  82.551  0.00  0.00    -0.044 A 
ATOM     10  C   UNL     1      45.153 111.326  83.328  0.00  0.00    +0.004 A 
ATOM     11  C   UNL     1      46.406 111.639  82.702  0.00  0.00    +0.000 A 
ATOM     12  C   UNL     1      46.479 111.898  81.303  0.00  0.00    +0.002 A 
ATOM     13  C   UNL     1      45.277 111.846  80.498  0.00  0.00    -0.065 A 
ATOM     14  C   UNL     1      44.003 111.529  81.129  0.00  0.00    +0.005 A 
BRANCH  13  15
ATOM     15  C   UNL     1      45.352 112.126  79.019  0.00  0.00    -0.051 C 
BRANCH  15  16
ATOM     16  N   UNL     1      44.914 110.987  78.155  0.00  0.00    +0.381 N 
ATOM     17  H   UNL     1      45.112 110.097  78.588  0.00  0.00    -0.090 HD
ATOM     18  H   UNL     1      45.405 110.992  77.271  0.00  0.00    -0.090 HD
ATOM     19  H   UNL     1      43.925 111.017  77.955  0.00  0.00    -0.090 HD
ENDBRANCH  15  16
ENDBRANCH  13  15
ENDBRANCH   1   9
BRANCH   5  20
ATOM     20  C   UNL     1      37.988 113.150  84.535  0.00  0.00    +0.055 A 
ATOM     21  C   UNL     1      37.518 114.372  83.975  0.00  0.00    +0.123 A 
ATOM     22  N   UNL     1      37.054 115.407  84.699  0.00  0.00    -0.262 NA
ATOM     23  C   UNL     1      37.033 115.306  86.040  0.00  0.00    +0.114 A 
ATOM     24  C   UNL     1      37.467 114.148  86.749  0.00  0.00    -0.028 A 
ATOM     25  C   UNL     1      37.963 113.028  85.966  0.00  0.00    +0.019 A 
BRANCH  24  26
ATOM     26  C   UNL     1      37.434 114.109  88.242  0.00  0.00    +0.041 C 
BRANCH  26  27
ATOM     27  C   UNL     1      38.631 113.387  88.848  0.00  0.00    +0.040 C 
BRANCH  27  28
ATOM     28  C   UNL     1      39.649 114.232  89.573  0.00  0.00    -0.047 A 
ATOM     29  C   UNL     1      39.366 114.712  90.924  0.00  0.00    +0.003 A 
ATOM     30  C   UNL     1      40.328 115.508  91.626  0.00  0.00    +0.000 A 
ATOM     31  C   UNL     1      41.597 115.858  91.013  0.00  0.00    +0.000 A 
ATOM     32  C   UNL     1      41.889 115.391  89.684  0.00  0.00    +0.000 A 
ATOM     33  C   UNL     1      40.906 114.575  88.967  0.00  0.00    +0.003 A 
ENDBRANCH  27  28
ENDBRANCH  26  27
ENDBRANCH  24  26
ENDBRANCH   5  20
TORSDOF 7
ENDMDL
