MODEL 1
REMARK VINA RESULT:      -7.9      0.000      0.000
REMARK SMILES O=c1ccc2c([nH]1)CCC[C@@H]2[NH2+]CCCCCCCCCCCC[NH2+][C@H]1CCCc2[nH]c(=O)ccc21
REMARK SMILES IDX 18 1 17 4 16 7 15 10 14 13 13 16 12 19 11 22 2 23 3 24 1 25
REMARK SMILES IDX 7 26 4 27 6 29 5 31 8 33 9 34 10 37 19 43 20 46 21 49 22 52
REMARK SMILES IDX 23 55 24 58 25 61 26 64 36 65 27 66 30 68 35 69 28 70 31 73
REMARK SMILES IDX 29 74 34 75 32 79 33 84
REMARK H PARENT 18 2 18 3 17 5 17 6 16 8 16 9 15 11 15 12 14 14 14 15 13 17
REMARK H PARENT 13 18 12 20 12 21 3 28 7 30 4 32 8 35 8 36 11 38 9 39 9 40
REMARK H PARENT 10 41 10 42 19 44 19 45 20 47 20 48 21 50 21 51 22 53 22 54
REMARK H PARENT 23 56 23 57 24 59 24 60 25 62 25 63 26 67 27 71 27 72 35 76
REMARK H PARENT 28 77 28 78 31 80 29 81 29 82 34 83
REMARK Flexibility Score: inf
ROOT
ATOM      1  C   UNL     1       2.616  33.283  15.027  1.00  0.00    -0.053 C 
ATOM      2  H   UNL     1       3.138  32.334  15.215  1.00  0.00     0.027 H 
ATOM      3  H   UNL     1       2.157  33.640  15.960  1.00  0.00     0.027 H 
ENDROOT
BRANCH   1   4
ATOM      4  C   UNL     1       1.521  33.038  14.015  1.00  0.00    -0.053 C 
ATOM      5  H   UNL     1       1.723  32.095  13.485  1.00  0.00     0.027 H 
ATOM      6  H   UNL     1       0.556  32.965  14.537  1.00  0.00     0.027 H 
BRANCH   4   7
ATOM      7  C   UNL     1       1.457  34.165  13.013  1.00  0.00    -0.053 C 
ATOM      8  H   UNL     1       0.763  34.933  13.385  1.00  0.00     0.027 H 
ATOM      9  H   UNL     1       2.461  34.599  12.902  1.00  0.00     0.027 H 
BRANCH   7  10
ATOM     10  C   UNL     1       0.976  33.684  11.651  1.00  0.00    -0.048 C 
ATOM     11  H   UNL     1       1.733  33.016  11.214  1.00  0.00     0.027 H 
ATOM     12  H   UNL     1       0.031  33.135  11.772  1.00  0.00     0.027 H 
BRANCH  10  13
ATOM     13  C   UNL     1       0.756  34.860  10.730  1.00  0.00    -0.004 C 
ATOM     14  H   UNL     1       1.700  35.101  10.222  1.00  0.00     0.032 H 
ATOM     15  H   UNL     1      -0.006  34.594   9.983  1.00  0.00     0.032 H 
BRANCH  13  16
ATOM     16  C   UNL     1       0.278  36.096  11.517  1.00  0.00     0.076 C 
ATOM     17  H   UNL     1      -0.697  36.440  11.143  1.00  0.00     0.092 H 
ATOM     18  H   UNL     1       0.199  35.866  12.589  1.00  0.00     0.092 H 
BRANCH  16  19
ATOM     19  N   UNL     1       1.359  37.159  11.268  1.00  0.00    -0.340 N 
ATOM     20  H   UNL     1       2.215  36.658  11.088  1.00  0.00     0.346 HD
ATOM     21  H   UNL     1       1.081  37.659  10.439  1.00  0.00     0.346 HD
BRANCH  19  22
ATOM     22  C   UNL     1       1.688  38.205  12.306  1.00  0.00     0.113 C 
ATOM     23  C   UNL     1       3.061  41.993  10.435  1.00  0.00     0.248 A 
ATOM     24  C   UNL     1       1.690  41.442  10.115  1.00  0.00     0.004 A 
ATOM     25  O   UNL     1       3.544  43.031   9.941  1.00  0.00    -0.270 OA
ATOM     26  N   UNL     1       3.797  41.217  11.315  1.00  0.00    -0.326 N 
ATOM     27  C   UNL     1       1.293  40.259  10.696  1.00  0.00    -0.046 A 
ATOM     28  H   UNL     1       1.027  41.973   9.434  1.00  0.00     0.068 H 
ATOM     29  C   UNL     1       3.417  40.047  11.911  1.00  0.00     0.027 A 
ATOM     30  H   UNL     1       4.712  41.550  11.541  1.00  0.00     0.169 HD
ATOM     31  C   UNL     1       2.180  39.498  11.622  1.00  0.00     0.029 A 
ATOM     32  H   UNL     1       0.301  39.868  10.474  1.00  0.00     0.063 H 
ATOM     33  C   UNL     1       4.417  39.408  12.883  1.00  0.00    -0.012 C 
ATOM     34  C   UNL     1       4.172  37.894  13.016  1.00  0.00    -0.042 C 
ATOM     35  H   UNL     1       4.308  39.878  13.871  1.00  0.00     0.033 H 
ATOM     36  H   UNL     1       5.438  39.575  12.508  1.00  0.00     0.033 H 
ATOM     37  C   UNL     1       2.673  37.607  13.349  1.00  0.00     0.004 C 
ATOM     38  H   UNL     1       0.761  38.456  12.842  1.00  0.00     0.102 H 
ATOM     39  H   UNL     1       4.434  37.400  12.069  1.00  0.00     0.027 H 
ATOM     40  H   UNL     1       4.804  37.495  13.825  1.00  0.00     0.027 H 
ATOM     41  H   UNL     1       2.525  36.518  13.385  1.00  0.00     0.033 H 
ATOM     42  H   UNL     1       2.444  38.041  14.333  1.00  0.00     0.033 H 
ENDBRANCH  19  22
ENDBRANCH  16  19
ENDBRANCH  13  16
ENDBRANCH  10  13
ENDBRANCH   7  10
ENDBRANCH   4   7
ENDBRANCH   1   4
BRANCH   1  43
ATOM     43  C   UNL     1       3.631  34.309  14.566  1.00  0.00    -0.053 C 
ATOM     44  H   UNL     1       3.629  35.146  15.279  1.00  0.00     0.027 H 
ATOM     45  H   UNL     1       3.333  34.672  13.572  1.00  0.00     0.027 H 
BRANCH  43  46
ATOM     46  C   UNL     1       5.045  33.761  14.473  1.00  0.00    -0.053 C 
ATOM     47  H   UNL     1       5.709  34.540  14.069  1.00  0.00     0.027 H 
ATOM     48  H   UNL     1       5.052  32.889  13.803  1.00  0.00     0.027 H 
BRANCH  46  49
ATOM     49  C   UNL     1       5.551  33.339  15.842  1.00  0.00    -0.053 C 
ATOM     50  H   UNL     1       5.603  32.241  15.868  1.00  0.00     0.027 H 
ATOM     51  H   UNL     1       4.836  33.691  16.600  1.00  0.00     0.027 H 
BRANCH  49  52
ATOM     52  C   UNL     1       6.929  33.895  16.189  1.00  0.00    -0.048 C 
ATOM     53  H   UNL     1       6.948  34.965  15.937  1.00  0.00     0.027 H 
ATOM     54  H   UNL     1       7.681  33.363  15.588  1.00  0.00     0.027 H 
BRANCH  52  55
ATOM     55  C   UNL     1       7.293  33.738  17.678  1.00  0.00    -0.004 C 
ATOM     56  H   UNL     1       7.968  34.559  17.961  1.00  0.00     0.032 H 
ATOM     57  H   UNL     1       7.809  32.775  17.812  1.00  0.00     0.032 H 
BRANCH  55  58
ATOM     58  C   UNL     1       6.072  33.769  18.605  1.00  0.00     0.076 C 
ATOM     59  H   UNL     1       5.148  33.857  18.014  1.00  0.00     0.092 H 
ATOM     60  H   UNL     1       6.144  34.617  19.301  1.00  0.00     0.092 H 
BRANCH  58  61
ATOM     61  N   UNL     1       6.081  32.487  19.354  1.00  0.00    -0.340 N 
ATOM     62  H   UNL     1       5.125  32.286  19.604  1.00  0.00     0.346 HD
ATOM     63  H   UNL     1       6.623  32.638  20.190  1.00  0.00     0.346 HD
BRANCH  61  64
ATOM     64  C   UNL     1       6.633  31.243  18.686  1.00  0.00     0.113 C 
ATOM     65  C   UNL     1       5.585  30.232  18.229  1.00  0.00     0.029 A 
ATOM     66  C   UNL     1       7.726  30.666  19.611  1.00  0.00     0.004 C 
ATOM     67  H   UNL     1       7.138  31.575  17.766  1.00  0.00     0.102 H 
ATOM     68  C   UNL     1       5.805  28.868  18.414  1.00  0.00     0.027 A 
ATOM     69  C   UNL     1       4.337  30.657  17.548  1.00  0.00    -0.046 A 
ATOM     70  C   UNL     1       8.212  29.305  19.098  1.00  0.00    -0.042 C 
ATOM     71  H   UNL     1       7.314  30.544  20.623  1.00  0.00     0.033 H 
ATOM     72  H   UNL     1       8.577  31.363  19.642  1.00  0.00     0.033 H 
ATOM     73  N   UNL     1       4.871  27.979  17.966  1.00  0.00    -0.326 N 
ATOM     74  C   UNL     1       7.054  28.289  19.111  1.00  0.00    -0.012 C 
ATOM     75  C   UNL     1       3.416  29.757  17.104  1.00  0.00     0.004 A 
ATOM     76  H   UNL     1       4.152  31.720  17.397  1.00  0.00     0.063 H 
ATOM     77  H   UNL     1       8.587  29.416  18.070  1.00  0.00     0.027 H 
ATOM     78  H   UNL     1       9.022  28.940  19.746  1.00  0.00     0.027 H 
ATOM     79  C   UNL     1       3.687  28.279  17.300  1.00  0.00     0.248 A 
ATOM     80  H   UNL     1       5.058  27.012  18.132  1.00  0.00     0.169 HD
ATOM     81  H   UNL     1       7.370  27.377  18.583  1.00  0.00     0.033 H 
ATOM     82  H   UNL     1       6.803  28.041  20.153  1.00  0.00     0.033 H 
ATOM     83  H   UNL     1       2.501  30.093  16.619  1.00  0.00     0.068 H 
ATOM     84  O   UNL     1       2.983  27.370  16.841  1.00  0.00    -0.270 OA
ENDBRANCH  61  64
ENDBRANCH  58  61
ENDBRANCH  55  58
ENDBRANCH  52  55
ENDBRANCH  49  52
ENDBRANCH  46  49
ENDBRANCH  43  46
ENDBRANCH   1  43
TORSDOF 15
ENDMDL
MODEL 2
REMARK VINA RESULT:      -7.4      1.795      2.787
REMARK SMILES O=c1ccc2c([nH]1)CCC[C@@H]2[NH2+]CCCCCCCCCCCC[NH2+][C@H]1CCCc2[nH]c(=O)ccc21
REMARK SMILES IDX 18 1 17 4 16 7 15 10 14 13 13 16 12 19 11 22 2 23 3 24 1 25
REMARK SMILES IDX 7 26 4 27 6 29 5 31 8 33 9 34 10 37 19 43 20 46 21 49 22 52
REMARK SMILES IDX 23 55 24 58 25 61 26 64 36 65 27 66 30 68 35 69 28 70 31 73
REMARK SMILES IDX 29 74 34 75 32 79 33 84
REMARK H PARENT 18 2 18 3 17 5 17 6 16 8 16 9 15 11 15 12 14 14 14 15 13 17
REMARK H PARENT 13 18 12 20 12 21 3 28 7 30 4 32 8 35 8 36 11 38 9 39 9 40
REMARK H PARENT 10 41 10 42 19 44 19 45 20 47 20 48 21 50 21 51 22 53 22 54
REMARK H PARENT 23 56 23 57 24 59 24 60 25 62 25 63 26 67 27 71 27 72 35 76
REMARK H PARENT 28 77 28 78 31 80 29 81 29 82 34 83
REMARK Flexibility Score: inf
ROOT
ATOM      1  C   UNL     1       5.570  32.549  15.840  1.00  0.00    -0.053 C 
ATOM      2  H   UNL     1       6.410  31.839  15.855  1.00  0.00     0.027 H 
ATOM      3  H   UNL     1       4.627  32.004  15.995  1.00  0.00     0.027 H 
ENDROOT
BRANCH   1   4
ATOM      4  C   UNL     1       5.524  33.213  14.483  1.00  0.00    -0.053 C 
ATOM      5  H   UNL     1       6.443  33.801  14.337  1.00  0.00     0.027 H 
ATOM      6  H   UNL     1       5.457  32.439  13.704  1.00  0.00     0.027 H 
BRANCH   4   7
ATOM      7  C   UNL     1       4.329  34.128  14.375  1.00  0.00    -0.053 C 
ATOM      8  H   UNL     1       3.412  33.529  14.487  1.00  0.00     0.027 H 
ATOM      9  H   UNL     1       4.379  34.875  15.180  1.00  0.00     0.027 H 
BRANCH   7  10
ATOM     10  C   UNL     1       4.287  34.848  13.035  1.00  0.00    -0.048 C 
ATOM     11  H   UNL     1       4.420  35.927  13.199  1.00  0.00     0.027 H 
ATOM     12  H   UNL     1       5.098  34.472  12.395  1.00  0.00     0.027 H 
BRANCH  10  13
ATOM     13  C   UNL     1       2.961  34.606  12.354  1.00  0.00    -0.004 C 
ATOM     14  H   UNL     1       3.142  34.305  11.312  1.00  0.00     0.032 H 
ATOM     15  H   UNL     1       2.427  33.802  12.881  1.00  0.00     0.032 H 
BRANCH  13  16
ATOM     16  C   UNL     1       2.093  35.878  12.366  1.00  0.00     0.076 C 
ATOM     17  H   UNL     1       1.176  35.727  11.779  1.00  0.00     0.092 H 
ATOM     18  H   UNL     1       1.827  36.156  13.396  1.00  0.00     0.092 H 
BRANCH  16  19
ATOM     19  N   UNL     1       2.976  36.959  11.724  1.00  0.00    -0.340 N 
ATOM     20  H   UNL     1       3.930  36.695  11.910  1.00  0.00     0.346 HD
ATOM     21  H   UNL     1       2.802  36.916  10.732  1.00  0.00     0.346 HD
BRANCH  19  22
ATOM     22  C   UNL     1       2.851  38.413  12.116  1.00  0.00     0.113 C 
ATOM     23  C   UNL     1      -0.236  40.501   9.699  1.00  0.00     0.248 A 
ATOM     24  C   UNL     1      -0.615  39.304  10.543  1.00  0.00     0.004 A 
ATOM     25  O   UNL     1      -1.024  41.134   8.969  1.00  0.00    -0.270 OA
ATOM     26  N   UNL     1       1.106  40.837   9.755  1.00  0.00    -0.326 N 
ATOM     27  C   UNL     1       0.363  38.665  11.272  1.00  0.00    -0.046 A 
ATOM     28  H   UNL     1      -1.645  38.954  10.573  1.00  0.00     0.068 H 
ATOM     29  C   UNL     1       2.088  40.224  10.480  1.00  0.00     0.027 A 
ATOM     30  H   UNL     1       1.390  41.620   9.201  1.00  0.00     0.169 HD
ATOM     31  C   UNL     1       1.786  39.110  11.244  1.00  0.00     0.029 A 
ATOM     32  H   UNL     1       0.088  37.811  11.888  1.00  0.00     0.063 H 
ATOM     33  C   UNL     1       3.496  40.829  10.391  1.00  0.00    -0.012 C 
ATOM     34  C   UNL     1       4.573  39.781  10.725  1.00  0.00    -0.042 C 
ATOM     35  H   UNL     1       3.573  41.663  11.104  1.00  0.00     0.033 H 
ATOM     36  H   UNL     1       3.661  41.203   9.370  1.00  0.00     0.033 H 
ATOM     37  C   UNL     1       4.254  39.079  12.084  1.00  0.00     0.004 C 
ATOM     38  H   UNL     1       2.495  38.455  13.156  1.00  0.00     0.102 H 
ATOM     39  H   UNL     1       4.603  39.026   9.926  1.00  0.00     0.027 H 
ATOM     40  H   UNL     1       5.552  40.279  10.797  1.00  0.00     0.027 H 
ATOM     41  H   UNL     1       5.013  38.303  12.263  1.00  0.00     0.033 H 
ATOM     42  H   UNL     1       4.301  39.831  12.886  1.00  0.00     0.033 H 
ENDBRANCH  19  22
ENDBRANCH  16  19
ENDBRANCH  13  16
ENDBRANCH  10  13
ENDBRANCH   7  10
ENDBRANCH   4   7
ENDBRANCH   1   4
BRANCH   1  43
ATOM     43  C   UNL     1       5.751  33.534  16.976  1.00  0.00    -0.053 C 
ATOM     44  H   UNL     1       5.171  33.179  17.841  1.00  0.00     0.027 H 
ATOM     45  H   UNL     1       5.366  34.512  16.654  1.00  0.00     0.027 H 
BRANCH  43  46
ATOM     46  C   UNL     1       7.198  33.704  17.405  1.00  0.00    -0.053 C 
ATOM     47  H   UNL     1       7.230  34.238  18.367  1.00  0.00     0.027 H 
ATOM     48  H   UNL     1       7.734  34.288  16.643  1.00  0.00     0.027 H 
BRANCH  46  49
ATOM     49  C   UNL     1       7.875  32.353  17.564  1.00  0.00    -0.053 C 
ATOM     50  H   UNL     1       8.104  31.961  16.562  1.00  0.00     0.027 H 
ATOM     51  H   UNL     1       7.178  31.674  18.075  1.00  0.00     0.027 H 
BRANCH  49  52
ATOM     52  C   UNL     1       9.171  32.404  18.368  1.00  0.00    -0.048 C 
ATOM     53  H   UNL     1       9.378  33.451  18.633  1.00  0.00     0.027 H 
ATOM     54  H   UNL     1       9.987  32.017  17.740  1.00  0.00     0.027 H 
BRANCH  52  55
ATOM     55  C   UNL     1       9.117  31.574  19.665  1.00  0.00    -0.004 C 
ATOM     56  H   UNL     1      10.001  31.818  20.273  1.00  0.00     0.032 H 
ATOM     57  H   UNL     1       9.138  30.507  19.399  1.00  0.00     0.032 H 
BRANCH  55  58
ATOM     58  C   UNL     1       7.860  31.842  20.502  1.00  0.00     0.076 C 
ATOM     59  H   UNL     1       7.042  32.195  19.856  1.00  0.00     0.092 H 
ATOM     60  H   UNL     1       8.070  32.598  21.273  1.00  0.00     0.092 H 
BRANCH  58  61
ATOM     61  N   UNL     1       7.494  30.550  21.135  1.00  0.00    -0.340 N 
ATOM     62  H   UNL     1       6.524  30.619  21.401  1.00  0.00     0.346 HD
ATOM     63  H   UNL     1       8.064  30.455  21.960  1.00  0.00     0.346 HD
BRANCH  61  64
ATOM     64  C   UNL     1       7.645  29.268  20.341  1.00  0.00     0.113 C 
ATOM     65  C   UNL     1       6.442  28.892  19.480  1.00  0.00     0.029 A 
ATOM     66  C   UNL     1       8.105  28.167  21.320  1.00  0.00     0.004 C 
ATOM     67  H   UNL     1       8.471  29.429  19.632  1.00  0.00     0.102 H 
ATOM     68  C   UNL     1       6.022  27.566  19.409  1.00  0.00     0.027 A 
ATOM     69  C   UNL     1       5.717  29.904  18.670  1.00  0.00    -0.046 A 
ATOM     70  C   UNL     1       8.108  26.795  20.636  1.00  0.00    -0.042 C 
ATOM     71  H   UNL     1       7.421  28.141  22.180  1.00  0.00     0.033 H 
ATOM     72  H   UNL     1       9.123  28.397  21.668  1.00  0.00     0.033 H 
ATOM     73  N   UNL     1       4.966  27.247  18.605  1.00  0.00    -0.326 N 
ATOM     74  C   UNL     1       6.679  26.416  20.201  1.00  0.00    -0.012 C 
ATOM     75  C   UNL     1       4.667  29.569  17.870  1.00  0.00     0.004 A 
ATOM     76  H   UNL     1       6.035  30.945  18.716  1.00  0.00     0.063 H 
ATOM     77  H   UNL     1       8.760  26.830  19.751  1.00  0.00     0.027 H 
ATOM     78  H   UNL     1       8.485  26.039  21.340  1.00  0.00     0.027 H 
ATOM     79  C   UNL     1       4.242  28.116  17.796  1.00  0.00     0.248 A 
ATOM     80  H   UNL     1       4.685  26.287  18.595  1.00  0.00     0.169 HD
ATOM     81  H   UNL     1       6.723  25.520  19.565  1.00  0.00     0.033 H 
ATOM     82  H   UNL     1       6.075  26.202  21.095  1.00  0.00     0.033 H 
ATOM     83  H   UNL     1       4.142  30.330  17.295  1.00  0.00     0.068 H 
ATOM     84  O   UNL     1       3.380  27.676  17.022  1.00  0.00    -0.270 OA
ENDBRANCH  61  64
ENDBRANCH  58  61
ENDBRANCH  55  58
ENDBRANCH  52  55
ENDBRANCH  49  52
ENDBRANCH  46  49
ENDBRANCH  43  46
ENDBRANCH   1  43
TORSDOF 15
ENDMDL
MODEL 3
REMARK VINA RESULT:      -7.3      2.247     10.972
REMARK SMILES O=c1ccc2c([nH]1)CCC[C@@H]2[NH2+]CCCCCCCCCCCC[NH2+][C@H]1CCCc2[nH]c(=O)ccc21
REMARK SMILES IDX 18 1 17 4 16 7 15 10 14 13 13 16 12 19 11 22 2 23 3 24 1 25
REMARK SMILES IDX 7 26 4 27 6 29 5 31 8 33 9 34 10 37 19 43 20 46 21 49 22 52
REMARK SMILES IDX 23 55 24 58 25 61 26 64 36 65 27 66 30 68 35 69 28 70 31 73
REMARK SMILES IDX 29 74 34 75 32 79 33 84
REMARK H PARENT 18 2 18 3 17 5 17 6 16 8 16 9 15 11 15 12 14 14 14 15 13 17
REMARK H PARENT 13 18 12 20 12 21 3 28 7 30 4 32 8 35 8 36 11 38 9 39 9 40
REMARK H PARENT 10 41 10 42 19 44 19 45 20 47 20 48 21 50 21 51 22 53 22 54
REMARK H PARENT 23 56 23 57 24 59 24 60 25 62 25 63 26 67 27 71 27 72 35 76
REMARK H PARENT 28 77 28 78 31 80 29 81 29 82 34 83
REMARK Flexibility Score: inf
ROOT
ATOM      1  C   UNL     1       3.735  32.645  17.236  1.00  0.00    -0.053 C 
ATOM      2  H   UNL     1       4.479  33.052  16.535  1.00  0.00     0.027 H 
ATOM      3  H   UNL     1       3.311  33.462  17.837  1.00  0.00     0.027 H 
ENDROOT
BRANCH   1   4
ATOM      4  C   UNL     1       4.429  31.675  18.165  1.00  0.00    -0.053 C 
ATOM      5  H   UNL     1       5.519  31.802  18.072  1.00  0.00     0.027 H 
ATOM      6  H   UNL     1       4.123  31.885  19.200  1.00  0.00     0.027 H 
BRANCH   4   7
ATOM      7  C   UNL     1       4.066  30.251  17.820  1.00  0.00    -0.053 C 
ATOM      8  H   UNL     1       3.257  30.262  17.074  1.00  0.00     0.027 H 
ATOM      9  H   UNL     1       4.949  29.752  17.396  1.00  0.00     0.027 H 
BRANCH   7  10
ATOM     10  C   UNL     1       3.600  29.475  19.043  1.00  0.00    -0.048 C 
ATOM     11  H   UNL     1       2.502  29.408  19.033  1.00  0.00     0.027 H 
ATOM     12  H   UNL     1       4.028  28.462  19.016  1.00  0.00     0.027 H 
BRANCH  10  13
ATOM     13  C   UNL     1       4.047  30.172  20.306  1.00  0.00    -0.004 C 
ATOM     14  H   UNL     1       4.556  31.109  20.038  1.00  0.00     0.032 H 
ATOM     15  H   UNL     1       3.166  30.397  20.924  1.00  0.00     0.032 H 
BRANCH  13  16
ATOM     16  C   UNL     1       5.015  29.286  21.112  1.00  0.00     0.076 C 
ATOM     17  H   UNL     1       4.635  29.127  22.132  1.00  0.00     0.092 H 
ATOM     18  H   UNL     1       5.155  28.315  20.617  1.00  0.00     0.092 H 
BRANCH  16  19
ATOM     19  N   UNL     1       6.333  30.075  21.142  1.00  0.00    -0.340 N 
ATOM     20  H   UNL     1       6.116  31.005  20.821  1.00  0.00     0.346 HD
ATOM     21  H   UNL     1       6.621  30.111  22.107  1.00  0.00     0.346 HD
BRANCH  19  22
ATOM     22  C   UNL     1       7.539  29.623  20.354  1.00  0.00     0.113 C 
ATOM     23  C   UNL     1       8.021  31.967  16.611  1.00  0.00     0.248 A 
ATOM     24  C   UNL     1       8.031  32.667  17.952  1.00  0.00     0.004 A 
ATOM     25  O   UNL     1       8.122  32.541  15.509  1.00  0.00    -0.270 OA
ATOM     26  N   UNL     1       7.840  30.596  16.685  1.00  0.00    -0.326 N 
ATOM     27  C   UNL     1       7.866  31.921  19.096  1.00  0.00    -0.046 A 
ATOM     28  H   UNL     1       8.168  33.746  18.010  1.00  0.00     0.068 H 
ATOM     29  C   UNL     1       7.685  29.836  17.810  1.00  0.00     0.027 A 
ATOM     30  H   UNL     1       7.820  30.105  15.814  1.00  0.00     0.169 HD
ATOM     31  C   UNL     1       7.664  30.444  19.053  1.00  0.00     0.029 A 
ATOM     32  H   UNL     1       7.885  32.423  20.062  1.00  0.00     0.063 H 
ATOM     33  C   UNL     1       7.541  28.322  17.608  1.00  0.00    -0.012 C 
ATOM     34  C   UNL     1       6.808  27.671  18.795  1.00  0.00    -0.042 C 
ATOM     35  H   UNL     1       8.542  27.876  17.516  1.00  0.00     0.033 H 
ATOM     36  H   UNL     1       6.970  28.136  16.687  1.00  0.00     0.033 H 
ATOM     37  C   UNL     1       7.475  28.084  20.147  1.00  0.00     0.004 C 
ATOM     38  H   UNL     1       8.437  29.832  20.954  1.00  0.00     0.102 H 
ATOM     39  H   UNL     1       5.757  27.998  18.795  1.00  0.00     0.027 H 
ATOM     40  H   UNL     1       6.851  26.577  18.691  1.00  0.00     0.027 H 
ATOM     41  H   UNL     1       6.895  27.645  20.971  1.00  0.00     0.033 H 
ATOM     42  H   UNL     1       8.500  27.687  20.166  1.00  0.00     0.033 H 
ENDBRANCH  19  22
ENDBRANCH  16  19
ENDBRANCH  13  16
ENDBRANCH  10  13
ENDBRANCH   7  10
ENDBRANCH   4   7
ENDBRANCH   1   4
BRANCH   1  43
ATOM     43  C   UNL     1       2.620  32.004  16.436  1.00  0.00    -0.053 C 
ATOM     44  H   UNL     1       1.678  32.125  16.992  1.00  0.00     0.027 H 
ATOM     45  H   UNL     1       2.844  30.934  16.321  1.00  0.00     0.027 H 
BRANCH  43  46
ATOM     46  C   UNL     1       2.442  32.609  15.054  1.00  0.00    -0.053 C 
ATOM     47  H   UNL     1       1.379  32.853  14.900  1.00  0.00     0.027 H 
ATOM     48  H   UNL     1       2.764  31.881  14.296  1.00  0.00     0.027 H 
BRANCH  46  49
ATOM     49  C   UNL     1       3.267  33.876  14.910  1.00  0.00    -0.053 C 
ATOM     50  H   UNL     1       3.675  34.138  15.898  1.00  0.00     0.027 H 
ATOM     51  H   UNL     1       2.606  34.683  14.560  1.00  0.00     0.027 H 
BRANCH  49  52
ATOM     52  C   UNL     1       4.429  33.748  13.929  1.00  0.00    -0.048 C 
ATOM     53  H   UNL     1       4.491  32.702  13.596  1.00  0.00     0.027 H 
ATOM     54  H   UNL     1       5.357  34.022  14.450  1.00  0.00     0.027 H 
BRANCH  52  55
ATOM     55  C   UNL     1       4.280  34.647  12.687  1.00  0.00    -0.004 C 
ATOM     56  H   UNL     1       4.972  34.289  11.910  1.00  0.00     0.032 H 
ATOM     57  H   UNL     1       4.547  35.678  12.968  1.00  0.00     0.032 H 
BRANCH  55  58
ATOM     58  C   UNL     1       2.860  34.652  12.110  1.00  0.00     0.076 C 
ATOM     59  H   UNL     1       2.120  34.673  12.923  1.00  0.00     0.092 H 
ATOM     60  H   UNL     1       2.698  33.759  11.490  1.00  0.00     0.092 H 
BRANCH  58  61
ATOM     61  N   UNL     1       2.747  35.880  11.283  1.00  0.00    -0.340 N 
ATOM     62  H   UNL     1       2.517  35.584  10.348  1.00  0.00     0.346 HD
ATOM     63  H   UNL     1       3.654  36.320  11.283  1.00  0.00     0.346 HD
BRANCH  61  64
ATOM     64  C   UNL     1       1.740  36.944  11.671  1.00  0.00     0.113 C 
ATOM     65  C   UNL     1       2.320  38.340  11.886  1.00  0.00     0.029 A 
ATOM     66  C   UNL     1       0.920  36.397  12.858  1.00  0.00     0.004 C 
ATOM     67  H   UNL     1       1.045  37.046  10.824  1.00  0.00     0.102 H 
ATOM     68  C   UNL     1       1.875  39.123  12.949  1.00  0.00     0.027 A 
ATOM     69  C   UNL     1       3.330  38.914  10.962  1.00  0.00    -0.046 A 
ATOM     70  C   UNL     1      -0.001  37.481  13.431  1.00  0.00    -0.042 C 
ATOM     71  H   UNL     1       1.608  36.056  13.645  1.00  0.00     0.033 H 
ATOM     72  H   UNL     1       0.308  35.550  12.514  1.00  0.00     0.033 H 
ATOM     73  N   UNL     1       2.382  40.382  13.102  1.00  0.00    -0.326 N 
ATOM     74  C   UNL     1       0.836  38.649  13.987  1.00  0.00    -0.012 C 
ATOM     75  C   UNL     1       3.824  40.173  11.127  1.00  0.00     0.004 A 
ATOM     76  H   UNL     1       3.687  38.312  10.127  1.00  0.00     0.063 H 
ATOM     77  H   UNL     1      -0.663  37.853  12.636  1.00  0.00     0.027 H 
ATOM     78  H   UNL     1      -0.607  37.052  14.242  1.00  0.00     0.027 H 
ATOM     79  C   UNL     1       3.310  41.012  12.280  1.00  0.00     0.248 A 
ATOM     80  H   UNL     1       2.050  40.905  13.886  1.00  0.00     0.169 HD
ATOM     81  H   UNL     1       0.166  39.486  14.232  1.00  0.00     0.033 H 
ATOM     82  H   UNL     1       1.359  38.318  14.896  1.00  0.00     0.033 H 
ATOM     83  H   UNL     1       4.574  40.569  10.445  1.00  0.00     0.068 H 
ATOM     84  O   UNL     1       3.597  42.203  12.464  1.00  0.00    -0.270 OA
ENDBRANCH  61  64
ENDBRANCH  58  61
ENDBRANCH  55  58
ENDBRANCH  52  55
ENDBRANCH  49  52
ENDBRANCH  46  49
ENDBRANCH  43  46
ENDBRANCH   1  43
TORSDOF 15
ENDMDL
MODEL 4
REMARK VINA RESULT:      -7.3      4.917     12.069
REMARK SMILES O=c1ccc2c([nH]1)CCC[C@@H]2[NH2+]CCCCCCCCCCCC[NH2+][C@H]1CCCc2[nH]c(=O)ccc21
REMARK SMILES IDX 18 1 17 4 16 7 15 10 14 13 13 16 12 19 11 22 2 23 3 24 1 25
REMARK SMILES IDX 7 26 4 27 6 29 5 31 8 33 9 34 10 37 19 43 20 46 21 49 22 52
REMARK SMILES IDX 23 55 24 58 25 61 26 64 36 65 27 66 30 68 35 69 28 70 31 73
REMARK SMILES IDX 29 74 34 75 32 79 33 84
REMARK H PARENT 18 2 18 3 17 5 17 6 16 8 16 9 15 11 15 12 14 14 14 15 13 17
REMARK H PARENT 13 18 12 20 12 21 3 28 7 30 4 32 8 35 8 36 11 38 9 39 9 40
REMARK H PARENT 10 41 10 42 19 44 19 45 20 47 20 48 21 50 21 51 22 53 22 54
REMARK H PARENT 23 56 23 57 24 59 24 60 25 62 25 63 26 67 27 71 27 72 35 76
REMARK H PARENT 28 77 28 78 31 80 29 81 29 82 34 83
REMARK Flexibility Score: inf
ROOT
ATOM      1  C   UNL     1       0.471  28.579  16.439  1.00  0.00    -0.053 C 
ATOM      2  H   UNL     1       0.321  28.002  15.515  1.00  0.00     0.027 H 
ATOM      3  H   UNL     1       0.368  27.913  17.307  1.00  0.00     0.027 H 
ENDROOT
BRANCH   1   4
ATOM      4  C   UNL     1      -0.597  29.645  16.520  1.00  0.00    -0.053 C 
ATOM      5  H   UNL     1      -0.119  30.636  16.522  1.00  0.00     0.027 H 
ATOM      6  H   UNL     1      -1.260  29.560  15.646  1.00  0.00     0.027 H 
BRANCH   4   7
ATOM      7  C   UNL     1      -1.415  29.488  17.779  1.00  0.00    -0.053 C 
ATOM      8  H   UNL     1      -2.419  29.903  17.604  1.00  0.00     0.027 H 
ATOM      9  H   UNL     1      -1.495  28.419  18.019  1.00  0.00     0.027 H 
BRANCH   7  10
ATOM     10  C   UNL     1      -0.781  30.212  18.958  1.00  0.00    -0.048 C 
ATOM     11  H   UNL     1       0.000  30.893  18.589  1.00  0.00     0.027 H 
ATOM     12  H   UNL     1      -1.553  30.793  19.486  1.00  0.00     0.027 H 
BRANCH  10  13
ATOM     13  C   UNL     1      -0.167  29.216  19.913  1.00  0.00    -0.004 C 
ATOM     14  H   UNL     1       0.861  28.995  19.589  1.00  0.00     0.032 H 
ATOM     15  H   UNL     1      -0.147  29.651  20.922  1.00  0.00     0.032 H 
BRANCH  13  16
ATOM     16  C   UNL     1      -0.977  27.908  19.943  1.00  0.00     0.076 C 
ATOM     17  H   UNL     1      -1.680  27.906  20.789  1.00  0.00     0.092 H 
ATOM     18  H   UNL     1      -1.534  27.775  19.004  1.00  0.00     0.092 H 
BRANCH  16  19
ATOM     19  N   UNL     1       0.075  26.800  20.111  1.00  0.00    -0.340 N 
ATOM     20  H   UNL     1       0.939  27.172  19.751  1.00  0.00     0.346 HD
ATOM     21  H   UNL     1       0.164  26.640  21.101  1.00  0.00     0.346 HD
BRANCH  19  22
ATOM     22  C   UNL     1      -0.103  25.442  19.474  1.00  0.00     0.113 C 
ATOM     23  C   UNL     1      -1.071  22.332  22.494  1.00  0.00     0.248 A 
ATOM     24  C   UNL     1      -1.975  23.532  22.324  1.00  0.00     0.004 A 
ATOM     25  O   UNL     1      -1.244  21.423  23.330  1.00  0.00    -0.270 OA
ATOM     26  N   UNL     1       0.033  22.326  21.658  1.00  0.00    -0.326 N 
ATOM     27  C   UNL     1      -1.647  24.490  21.392  1.00  0.00    -0.046 A 
ATOM     28  H   UNL     1      -2.873  23.636  22.931  1.00  0.00     0.068 H 
ATOM     29  C   UNL     1       0.371  23.260  20.719  1.00  0.00     0.027 A 
ATOM     30  H   UNL     1       0.655  21.549  21.752  1.00  0.00     0.169 HD
ATOM     31  C   UNL     1      -0.418  24.385  20.553  1.00  0.00     0.029 A 
ATOM     32  H   UNL     1      -2.304  25.348  21.262  1.00  0.00     0.063 H 
ATOM     33  C   UNL     1       1.636  22.988  19.895  1.00  0.00    -0.012 C 
ATOM     34  C   UNL     1       2.228  24.295  19.339  1.00  0.00    -0.042 C 
ATOM     35  H   UNL     1       1.382  22.323  19.057  1.00  0.00     0.033 H 
ATOM     36  H   UNL     1       2.383  22.499  20.537  1.00  0.00     0.033 H 
ATOM     37  C   UNL     1       1.133  25.120  18.590  1.00  0.00     0.004 C 
ATOM     38  H   UNL     1      -0.976  25.491  18.806  1.00  0.00     0.102 H 
ATOM     39  H   UNL     1       2.627  24.895  20.170  1.00  0.00     0.027 H 
ATOM     40  H   UNL     1       3.041  24.054  18.637  1.00  0.00     0.027 H 
ATOM     41  H   UNL     1       1.578  26.067  18.253  1.00  0.00     0.033 H 
ATOM     42  H   UNL     1       0.796  24.542  17.717  1.00  0.00     0.033 H 
ENDBRANCH  19  22
ENDBRANCH  16  19
ENDBRANCH  13  16
ENDBRANCH  10  13
ENDBRANCH   7  10
ENDBRANCH   4   7
ENDBRANCH   1   4
BRANCH   1  43
ATOM     43  C   UNL     1       1.876  29.147  16.430  1.00  0.00    -0.053 C 
ATOM     44  H   UNL     1       1.875  30.086  17.003  1.00  0.00     0.027 H 
ATOM     45  H   UNL     1       2.162  29.352  15.388  1.00  0.00     0.027 H 
BRANCH  43  46
ATOM     46  C   UNL     1       2.909  28.214  17.038  1.00  0.00    -0.053 C 
ATOM     47  H   UNL     1       3.833  28.261  16.442  1.00  0.00     0.027 H 
ATOM     48  H   UNL     1       2.518  27.186  17.028  1.00  0.00     0.027 H 
BRANCH  46  49
ATOM     49  C   UNL     1       3.221  28.614  18.470  1.00  0.00    -0.053 C 
ATOM     50  H   UNL     1       2.590  28.013  19.142  1.00  0.00     0.027 H 
ATOM     51  H   UNL     1       2.977  29.679  18.593  1.00  0.00     0.027 H 
BRANCH  49  52
ATOM     52  C   UNL     1       4.679  28.406  18.865  1.00  0.00    -0.048 C 
ATOM     53  H   UNL     1       4.974  27.383  18.587  1.00  0.00     0.027 H 
ATOM     54  H   UNL     1       4.767  28.529  19.954  1.00  0.00     0.027 H 
BRANCH  52  55
ATOM     55  C   UNL     1       5.643  29.394  18.182  1.00  0.00    -0.004 C 
ATOM     56  H   UNL     1       5.081  29.971  17.433  1.00  0.00     0.032 H 
ATOM     57  H   UNL     1       6.437  28.819  17.681  1.00  0.00     0.032 H 
BRANCH  55  58
ATOM     58  C   UNL     1       6.298  30.376  19.161  1.00  0.00     0.076 C 
ATOM     59  H   UNL     1       7.252  30.740  18.752  1.00  0.00     0.092 H 
ATOM     60  H   UNL     1       6.478  29.885  20.129  1.00  0.00     0.092 H 
BRANCH  58  61
ATOM     61  N   UNL     1       5.347  31.503  19.324  1.00  0.00    -0.340 N 
ATOM     62  H   UNL     1       5.343  31.744  20.303  1.00  0.00     0.346 HD
ATOM     63  H   UNL     1       4.437  31.162  19.058  1.00  0.00     0.346 HD
BRANCH  61  64
ATOM     64  C   UNL     1       5.581  32.787  18.553  1.00  0.00     0.113 C 
ATOM     65  C   UNL     1       4.796  32.913  17.250  1.00  0.00     0.029 A 
ATOM     66  C   UNL     1       7.106  32.970  18.407  1.00  0.00     0.004 C 
ATOM     67  H   UNL     1       5.221  33.609  19.190  1.00  0.00     0.102 H 
ATOM     68  C   UNL     1       5.410  33.440  16.115  1.00  0.00     0.027 A 
ATOM     69  C   UNL     1       3.365  32.525  17.161  1.00  0.00    -0.046 A 
ATOM     70  C   UNL     1       7.428  34.150  17.483  1.00  0.00    -0.042 C 
ATOM     71  H   UNL     1       7.540  32.052  17.986  1.00  0.00     0.033 H 
ATOM     72  H   UNL     1       7.543  33.161  19.399  1.00  0.00     0.033 H 
ATOM     73  N   UNL     1       4.679  33.577  14.970  1.00  0.00    -0.326 N 
ATOM     74  C   UNL     1       6.889  33.877  16.066  1.00  0.00    -0.012 C 
ATOM     75  C   UNL     1       2.650  32.671  16.011  1.00  0.00     0.004 A 
ATOM     76  H   UNL     1       2.874  32.112  18.040  1.00  0.00     0.063 H 
ATOM     77  H   UNL     1       6.960  35.062  17.880  1.00  0.00     0.027 H 
ATOM     78  H   UNL     1       8.518  34.288  17.435  1.00  0.00     0.027 H 
ATOM     79  C   UNL     1       3.335  33.263  14.796  1.00  0.00     0.248 A 
ATOM     80  H   UNL     1       5.160  33.942  14.173  1.00  0.00     0.169 HD
ATOM     81  H   UNL     1       6.972  34.795  15.466  1.00  0.00     0.033 H 
ATOM     82  H   UNL     1       7.485  33.079  15.600  1.00  0.00     0.033 H 
ATOM     83  H   UNL     1       1.606  32.367  15.965  1.00  0.00     0.068 H 
ATOM     84  O   UNL     1       2.761  33.548  13.736  1.00  0.00    -0.270 OA
ENDBRANCH  61  64
ENDBRANCH  58  61
ENDBRANCH  55  58
ENDBRANCH  52  55
ENDBRANCH  49  52
ENDBRANCH  46  49
ENDBRANCH  43  46
ENDBRANCH   1  43
TORSDOF 15
ENDMDL
MODEL 5
REMARK VINA RESULT:      -7.3      2.757     10.396
REMARK SMILES O=c1ccc2c([nH]1)CCC[C@@H]2[NH2+]CCCCCCCCCCCC[NH2+][C@H]1CCCc2[nH]c(=O)ccc21
REMARK SMILES IDX 18 1 17 4 16 7 15 10 14 13 13 16 12 19 11 22 2 23 3 24 1 25
REMARK SMILES IDX 7 26 4 27 6 29 5 31 8 33 9 34 10 37 19 43 20 46 21 49 22 52
REMARK SMILES IDX 23 55 24 58 25 61 26 64 36 65 27 66 30 68 35 69 28 70 31 73
REMARK SMILES IDX 29 74 34 75 32 79 33 84
REMARK H PARENT 18 2 18 3 17 5 17 6 16 8 16 9 15 11 15 12 14 14 14 15 13 17
REMARK H PARENT 13 18 12 20 12 21 3 28 7 30 4 32 8 35 8 36 11 38 9 39 9 40
REMARK H PARENT 10 41 10 42 19 44 19 45 20 47 20 48 21 50 21 51 22 53 22 54
REMARK H PARENT 23 56 23 57 24 59 24 60 25 62 25 63 26 67 27 71 27 72 35 76
REMARK H PARENT 28 77 28 78 31 80 29 81 29 82 34 83
REMARK Flexibility Score: inf
ROOT
ATOM      1  C   UNL     1       7.556  32.770  18.970  1.00  0.00    -0.053 C 
ATOM      2  H   UNL     1       8.415  33.139  19.549  1.00  0.00     0.027 H 
ATOM      3  H   UNL     1       6.829  32.304  19.650  1.00  0.00     0.027 H 
ENDROOT
BRANCH   1   4
ATOM      4  C   UNL     1       8.045  31.723  17.997  1.00  0.00    -0.053 C 
ATOM      5  H   UNL     1       8.047  32.146  16.981  1.00  0.00     0.027 H 
ATOM      6  H   UNL     1       9.068  31.425  18.271  1.00  0.00     0.027 H 
BRANCH   4   7
ATOM      7  C   UNL     1       7.151  30.507  18.025  1.00  0.00    -0.053 C 
ATOM      8  H   UNL     1       6.675  30.394  17.040  1.00  0.00     0.027 H 
ATOM      9  H   UNL     1       7.764  29.620  18.242  1.00  0.00     0.027 H 
BRANCH   7  10
ATOM     10  C   UNL     1       6.066  30.628  19.086  1.00  0.00    -0.048 C 
ATOM     11  H   UNL     1       6.193  29.826  19.828  1.00  0.00     0.027 H 
ATOM     12  H   UNL     1       6.153  31.605  19.585  1.00  0.00     0.027 H 
BRANCH  10  13
ATOM     13  C   UNL     1       4.701  30.511  18.451  1.00  0.00    -0.004 C 
ATOM     14  H   UNL     1       3.938  30.483  19.243  1.00  0.00     0.032 H 
ATOM     15  H   UNL     1       4.528  31.385  17.806  1.00  0.00     0.032 H 
BRANCH  13  16
ATOM     16  C   UNL     1       4.594  29.230  17.603  1.00  0.00     0.076 C 
ATOM     17  H   UNL     1       5.342  29.235  16.798  1.00  0.00     0.092 H 
ATOM     18  H   UNL     1       4.735  28.338  18.230  1.00  0.00     0.092 H 
BRANCH  16  19
ATOM     19  N   UNL     1       3.172  29.265  17.022  1.00  0.00    -0.340 N 
ATOM     20  H   UNL     1       2.715  30.063  17.434  1.00  0.00     0.346 HD
ATOM     21  H   UNL     1       3.274  29.410  16.030  1.00  0.00     0.346 HD
BRANCH  19  22
ATOM     22  C   UNL     1       2.225  28.100  17.186  1.00  0.00     0.113 C 
ATOM     23  C   UNL     1      -2.018  29.411  17.077  1.00  0.00     0.248 A 
ATOM     24  C   UNL     1      -1.112  29.675  15.896  1.00  0.00     0.004 A 
ATOM     25  O   UNL     1      -3.212  29.763  17.150  1.00  0.00    -0.270 OA
ATOM     26  N   UNL     1      -1.402  28.765  18.136  1.00  0.00    -0.326 N 
ATOM     27  C   UNL     1       0.203  29.272  15.959  1.00  0.00    -0.046 A 
ATOM     28  H   UNL     1      -1.494  30.177  15.009  1.00  0.00     0.068 H 
ATOM     29  C   UNL     1      -0.103  28.347  18.214  1.00  0.00     0.027 A 
ATOM     30  H   UNL     1      -1.973  28.583  18.936  1.00  0.00     0.169 HD
ATOM     31  C   UNL     1       0.763  28.594  17.164  1.00  0.00     0.029 A 
ATOM     32  H   UNL     1       0.852  29.452  15.104  1.00  0.00     0.063 H 
ATOM     33  C   UNL     1       0.313  27.615  19.497  1.00  0.00    -0.012 C 
ATOM     34  C   UNL     1       1.831  27.725  19.731  1.00  0.00    -0.042 C 
ATOM     35  H   UNL     1       0.039  26.553  19.409  1.00  0.00     0.033 H 
ATOM     36  H   UNL     1      -0.216  28.061  20.351  1.00  0.00     0.033 H 
ATOM     37  C   UNL     1       2.617  27.290  18.453  1.00  0.00     0.004 C 
ATOM     38  H   UNL     1       2.353  27.432  16.322  1.00  0.00     0.102 H 
ATOM     39  H   UNL     1       2.085  28.767  19.975  1.00  0.00     0.027 H 
ATOM     40  H   UNL     1       2.115  27.072  20.570  1.00  0.00     0.027 H 
ATOM     41  H   UNL     1       3.692  27.431  18.639  1.00  0.00     0.033 H 
ATOM     42  H   UNL     1       2.414  26.226  18.262  1.00  0.00     0.033 H 
ENDBRANCH  19  22
ENDBRANCH  16  19
ENDBRANCH  13  16
ENDBRANCH  10  13
ENDBRANCH   7  10
ENDBRANCH   4   7
ENDBRANCH   1   4
BRANCH   1  43
ATOM     43  C   UNL     1       6.893  33.949  18.288  1.00  0.00    -0.053 C 
ATOM     44  H   UNL     1       7.415  34.868  18.594  1.00  0.00     0.027 H 
ATOM     45  H   UNL     1       5.844  33.996  18.615  1.00  0.00     0.027 H 
BRANCH  43  46
ATOM     46  C   UNL     1       6.920  33.864  16.772  1.00  0.00    -0.053 C 
ATOM     47  H   UNL     1       7.613  33.065  16.467  1.00  0.00     0.027 H 
ATOM     48  H   UNL     1       7.266  34.824  16.362  1.00  0.00     0.027 H 
BRANCH  46  49
ATOM     49  C   UNL     1       5.537  33.559  16.223  1.00  0.00    -0.053 C 
ATOM     50  H   UNL     1       4.857  34.367  16.530  1.00  0.00     0.027 H 
ATOM     51  H   UNL     1       5.195  32.608  16.656  1.00  0.00     0.027 H 
BRANCH  49  52
ATOM     52  C   UNL     1       5.488  33.440  14.703  1.00  0.00    -0.048 C 
ATOM     53  H   UNL     1       6.436  33.002  14.356  1.00  0.00     0.027 H 
ATOM     54  H   UNL     1       5.373  34.447  14.277  1.00  0.00     0.027 H 
BRANCH  52  55
ATOM     55  C   UNL     1       4.330  32.559  14.197  1.00  0.00    -0.004 C 
ATOM     56  H   UNL     1       4.693  31.524  14.103  1.00  0.00     0.032 H 
ATOM     57  H   UNL     1       4.015  32.928  13.209  1.00  0.00     0.032 H 
BRANCH  55  58
ATOM     58  C   UNL     1       3.113  32.566  15.130  1.00  0.00     0.076 C 
ATOM     59  H   UNL     1       3.419  32.839  16.151  1.00  0.00     0.092 H 
ATOM     60  H   UNL     1       2.638  31.574  15.142  1.00  0.00     0.092 H 
BRANCH  58  61
ATOM     61  N   UNL     1       2.174  33.580  14.587  1.00  0.00    -0.340 N 
ATOM     62  H   UNL     1       2.344  34.436  15.092  1.00  0.00     0.346 HD
ATOM     63  H   UNL     1       1.241  33.253  14.784  1.00  0.00     0.346 HD
BRANCH  61  64
ATOM     64  C   UNL     1       2.223  33.920  13.111  1.00  0.00     0.113 C 
ATOM     65  C   UNL     1       2.239  35.412  12.789  1.00  0.00     0.029 A 
ATOM     66  C   UNL     1       1.101  33.122  12.414  1.00  0.00     0.004 C 
ATOM     67  H   UNL     1       3.177  33.529  12.727  1.00  0.00     0.102 H 
ATOM     68  C   UNL     1       1.479  35.905  11.730  1.00  0.00     0.027 A 
ATOM     69  C   UNL     1       3.082  36.365  13.554  1.00  0.00    -0.046 A 
ATOM     70  C   UNL     1       0.961  33.544  10.946  1.00  0.00    -0.042 C 
ATOM     71  H   UNL     1       0.150  33.307  12.935  1.00  0.00     0.033 H 
ATOM     72  H   UNL     1       1.340  32.049  12.458  1.00  0.00     0.033 H 
ATOM     73  N   UNL     1       1.536  37.236  11.437  1.00  0.00    -0.326 N 
ATOM     74  C   UNL     1       0.555  35.028  10.858  1.00  0.00    -0.012 C 
ATOM     75  C   UNL     1       3.130  37.691  13.246  1.00  0.00     0.004 A 
ATOM     76  H   UNL     1       3.681  35.993  14.384  1.00  0.00     0.063 H 
ATOM     77  H   UNL     1       1.923  33.399  10.433  1.00  0.00     0.027 H 
ATOM     78  H   UNL     1       0.190  32.928  10.462  1.00  0.00     0.027 H 
ATOM     79  C   UNL     1       2.308  38.199  12.078  1.00  0.00     0.248 A 
ATOM     80  H   UNL     1       0.963  37.553  10.681  1.00  0.00     0.169 HD
ATOM     81  H   UNL     1       0.629  35.358   9.811  1.00  0.00     0.033 H 
ATOM     82  H   UNL     1      -0.482  35.139  11.206  1.00  0.00     0.033 H 
ATOM     83  H   UNL     1       3.745  38.373  13.829  1.00  0.00     0.068 H 
ATOM     84  O   UNL     1       2.358  39.355  11.635  1.00  0.00    -0.270 OA
ENDBRANCH  61  64
ENDBRANCH  58  61
ENDBRANCH  55  58
ENDBRANCH  52  55
ENDBRANCH  49  52
ENDBRANCH  46  49
ENDBRANCH  43  46
ENDBRANCH   1  43
TORSDOF 15
ENDMDL
MODEL 6
REMARK VINA RESULT:      -7.2      3.097     10.485
REMARK SMILES O=c1ccc2c([nH]1)CCC[C@@H]2[NH2+]CCCCCCCCCCCC[NH2+][C@H]1CCCc2[nH]c(=O)ccc21
REMARK SMILES IDX 18 1 17 4 16 7 15 10 14 13 13 16 12 19 11 22 2 23 3 24 1 25
REMARK SMILES IDX 7 26 4 27 6 29 5 31 8 33 9 34 10 37 19 43 20 46 21 49 22 52
REMARK SMILES IDX 23 55 24 58 25 61 26 64 36 65 27 66 30 68 35 69 28 70 31 73
REMARK SMILES IDX 29 74 34 75 32 79 33 84
REMARK H PARENT 18 2 18 3 17 5 17 6 16 8 16 9 15 11 15 12 14 14 14 15 13 17
REMARK H PARENT 13 18 12 20 12 21 3 28 7 30 4 32 8 35 8 36 11 38 9 39 9 40
REMARK H PARENT 10 41 10 42 19 44 19 45 20 47 20 48 21 50 21 51 22 53 22 54
REMARK H PARENT 23 56 23 57 24 59 24 60 25 62 25 63 26 67 27 71 27 72 35 76
REMARK H PARENT 28 77 28 78 31 80 29 81 29 82 34 83
REMARK Flexibility Score: inf
ROOT
ATOM      1  C   UNL     1       1.252  32.307  15.145  1.00  0.00    -0.053 C 
ATOM      2  H   UNL     1       1.309  31.903  14.124  1.00  0.00     0.027 H 
ATOM      3  H   UNL     1       1.221  33.406  15.104  1.00  0.00     0.027 H 
ENDROOT
BRANCH   1   4
ATOM      4  C   UNL     1       2.494  31.889  15.898  1.00  0.00    -0.053 C 
ATOM      5  H   UNL     1       2.218  31.158  16.673  1.00  0.00     0.027 H 
ATOM      6  H   UNL     1       3.204  31.428  15.196  1.00  0.00     0.027 H 
BRANCH   4   7
ATOM      7  C   UNL     1       3.149  33.081  16.553  1.00  0.00    -0.053 C 
ATOM      8  H   UNL     1       2.383  33.848  16.740  1.00  0.00     0.027 H 
ATOM      9  H   UNL     1       3.592  32.763  17.508  1.00  0.00     0.027 H 
BRANCH   7  10
ATOM     10  C   UNL     1       4.241  33.677  15.677  1.00  0.00    -0.048 C 
ATOM     11  H   UNL     1       3.779  34.234  14.848  1.00  0.00     0.027 H 
ATOM     12  H   UNL     1       4.857  34.362  16.279  1.00  0.00     0.027 H 
BRANCH  10  13
ATOM     13  C   UNL     1       5.117  32.582  15.116  1.00  0.00    -0.004 C 
ATOM     14  H   UNL     1       4.977  31.669  15.712  1.00  0.00     0.032 H 
ATOM     15  H   UNL     1       4.826  32.388  14.074  1.00  0.00     0.032 H 
BRANCH  13  16
ATOM     16  C   UNL     1       6.602  32.987  15.157  1.00  0.00     0.076 C 
ATOM     17  H   UNL     1       7.052  32.915  14.156  1.00  0.00     0.092 H 
ATOM     18  H   UNL     1       6.714  34.013  15.537  1.00  0.00     0.092 H 
BRANCH  16  19
ATOM     19  N   UNL     1       7.255  31.979  16.117  1.00  0.00    -0.340 N 
ATOM     20  H   UNL     1       6.535  31.322  16.372  1.00  0.00     0.346 HD
ATOM     21  H   UNL     1       7.970  31.506  15.588  1.00  0.00     0.346 HD
BRANCH  19  22
ATOM     22  C   UNL     1       7.902  32.426  17.406  1.00  0.00     0.113 C 
ATOM     23  C   UNL     1       7.377  29.413  20.629  1.00  0.00     0.248 A 
ATOM     24  C   UNL     1       8.087  29.037  19.347  1.00  0.00     0.004 A 
ATOM     25  O   UNL     1       7.159  28.632  21.576  1.00  0.00    -0.270 OA
ATOM     26  N   UNL     1       6.926  30.722  20.669  1.00  0.00    -0.326 N 
ATOM     27  C   UNL     1       8.225  29.984  18.358  1.00  0.00    -0.046 A 
ATOM     28  H   UNL     1       8.483  28.033  19.210  1.00  0.00     0.068 H 
ATOM     29  C   UNL     1       7.062  31.679  19.703  1.00  0.00     0.027 A 
ATOM     30  H   UNL     1       6.445  30.999  21.500  1.00  0.00     0.169 HD
ATOM     31  C   UNL     1       7.683  31.366  18.507  1.00  0.00     0.029 A 
ATOM     32  H   UNL     1       8.746  29.717  17.440  1.00  0.00     0.063 H 
ATOM     33  C   UNL     1       6.500  33.070  20.023  1.00  0.00    -0.012 C 
ATOM     34  C   UNL     1       6.174  33.847  18.734  1.00  0.00    -0.042 C 
ATOM     35  H   UNL     1       7.246  33.634  20.603  1.00  0.00     0.033 H 
ATOM     36  H   UNL     1       5.582  32.958  20.617  1.00  0.00     0.033 H 
ATOM     37  C   UNL     1       7.403  33.851  17.769  1.00  0.00     0.004 C 
ATOM     38  H   UNL     1       8.987  32.495  17.237  1.00  0.00     0.102 H 
ATOM     39  H   UNL     1       5.320  33.371  18.231  1.00  0.00     0.027 H 
ATOM     40  H   UNL     1       5.916  34.885  18.994  1.00  0.00     0.027 H 
ATOM     41  H   UNL     1       7.117  34.368  16.841  1.00  0.00     0.033 H 
ATOM     42  H   UNL     1       8.227  34.396  18.254  1.00  0.00     0.033 H 
ENDBRANCH  19  22
ENDBRANCH  16  19
ENDBRANCH  13  16
ENDBRANCH  10  13
ENDBRANCH   7  10
ENDBRANCH   4   7
ENDBRANCH   1   4
BRANCH   1  43
ATOM     43  C   UNL     1      -0.026  31.812  15.789  1.00  0.00    -0.053 C 
ATOM     44  H   UNL     1      -0.432  32.615  16.423  1.00  0.00     0.027 H 
ATOM     45  H   UNL     1       0.213  30.938  16.413  1.00  0.00     0.027 H 
BRANCH  43  46
ATOM     46  C   UNL     1      -1.092  31.408  14.785  1.00  0.00    -0.053 C 
ATOM     47  H   UNL     1      -1.878  30.835  15.302  1.00  0.00     0.027 H 
ATOM     48  H   UNL     1      -0.636  30.781  14.006  1.00  0.00     0.027 H 
BRANCH  46  49
ATOM     49  C   UNL     1      -1.715  32.633  14.138  1.00  0.00    -0.053 C 
ATOM     50  H   UNL     1      -2.306  32.302  13.270  1.00  0.00     0.027 H 
ATOM     51  H   UNL     1      -0.906  33.296  13.800  1.00  0.00     0.027 H 
BRANCH  49  52
ATOM     52  C   UNL     1      -2.629  33.425  15.068  1.00  0.00    -0.048 C 
ATOM     53  H   UNL     1      -2.003  33.977  15.785  1.00  0.00     0.027 H 
ATOM     54  H   UNL     1      -3.273  32.719  15.611  1.00  0.00     0.027 H 
BRANCH  52  55
ATOM     55  C   UNL     1      -3.526  34.434  14.327  1.00  0.00    -0.004 C 
ATOM     56  H   UNL     1      -4.450  34.574  14.908  1.00  0.00     0.032 H 
ATOM     57  H   UNL     1      -3.775  34.020  13.338  1.00  0.00     0.032 H 
BRANCH  55  58
ATOM     58  C   UNL     1      -2.863  35.802  14.129  1.00  0.00     0.076 C 
ATOM     59  H   UNL     1      -2.028  35.925  14.834  1.00  0.00     0.092 H 
ATOM     60  H   UNL     1      -3.596  36.607  14.285  1.00  0.00     0.092 H 
BRANCH  58  61
ATOM     61  N   UNL     1      -2.362  35.828  12.732  1.00  0.00    -0.340 N 
ATOM     62  H   UNL     1      -3.130  36.124  12.150  1.00  0.00     0.346 HD
ATOM     63  H   UNL     1      -2.105  34.883  12.494  1.00  0.00     0.346 HD
BRANCH  61  64
ATOM     64  C   UNL     1      -1.179  36.709  12.385  1.00  0.00     0.113 C 
ATOM     65  C   UNL     1       0.176  36.006  12.388  1.00  0.00     0.029 A 
ATOM     66  C   UNL     1      -1.256  37.964  13.280  1.00  0.00     0.004 C 
ATOM     67  H   UNL     1      -1.329  37.048  11.349  1.00  0.00     0.102 H 
ATOM     68  C   UNL     1       1.291  36.644  12.929  1.00  0.00     0.027 A 
ATOM     69  C   UNL     1       0.357  34.660  11.789  1.00  0.00    -0.046 A 
ATOM     70  C   UNL     1       0.003  38.825  13.123  1.00  0.00    -0.042 C 
ATOM     71  H   UNL     1      -1.352  37.652  14.330  1.00  0.00     0.033 H 
ATOM     72  H   UNL     1      -2.136  38.559  12.992  1.00  0.00     0.033 H 
ATOM     73  N   UNL     1       2.500  36.012  12.889  1.00  0.00    -0.326 N 
ATOM     74  C   UNL     1       1.244  38.039  13.588  1.00  0.00    -0.012 C 
ATOM     75  C   UNL     1       1.572  34.044  11.755  1.00  0.00     0.004 A 
ATOM     76  H   UNL     1      -0.506  34.150  11.363  1.00  0.00     0.063 H 
ATOM     77  H   UNL     1       0.124  39.104  12.066  1.00  0.00     0.027 H 
ATOM     78  H   UNL     1      -0.100  39.734  13.733  1.00  0.00     0.027 H 
ATOM     79  C   UNL     1       2.772  34.767  12.332  1.00  0.00     0.248 A 
ATOM     80  H   UNL     1       3.272  36.496  13.303  1.00  0.00     0.169 HD
ATOM     81  H   UNL     1       2.149  38.599  13.309  1.00  0.00     0.033 H 
ATOM     82  H   UNL     1       1.208  37.921  14.681  1.00  0.00     0.033 H 
ATOM     83  H   UNL     1       1.678  33.052  11.322  1.00  0.00     0.068 H 
ATOM     84  O   UNL     1       3.940  34.360  12.257  1.00  0.00    -0.270 OA
ENDBRANCH  61  64
ENDBRANCH  58  61
ENDBRANCH  55  58
ENDBRANCH  52  55
ENDBRANCH  49  52
ENDBRANCH  46  49
ENDBRANCH  43  46
ENDBRANCH   1  43
TORSDOF 15
ENDMDL
MODEL 7
REMARK VINA RESULT:      -7.1      2.143     10.035
REMARK SMILES O=c1ccc2c([nH]1)CCC[C@@H]2[NH2+]CCCCCCCCCCCC[NH2+][C@H]1CCCc2[nH]c(=O)ccc21
REMARK SMILES IDX 18 1 17 4 16 7 15 10 14 13 13 16 12 19 11 22 2 23 3 24 1 25
REMARK SMILES IDX 7 26 4 27 6 29 5 31 8 33 9 34 10 37 19 43 20 46 21 49 22 52
REMARK SMILES IDX 23 55 24 58 25 61 26 64 36 65 27 66 30 68 35 69 28 70 31 73
REMARK SMILES IDX 29 74 34 75 32 79 33 84
REMARK H PARENT 18 2 18 3 17 5 17 6 16 8 16 9 15 11 15 12 14 14 14 15 13 17
REMARK H PARENT 13 18 12 20 12 21 3 28 7 30 4 32 8 35 8 36 11 38 9 39 9 40
REMARK H PARENT 10 41 10 42 19 44 19 45 20 47 20 48 21 50 21 51 22 53 22 54
REMARK H PARENT 23 56 23 57 24 59 24 60 25 62 25 63 26 67 27 71 27 72 35 76
REMARK H PARENT 28 77 28 78 31 80 29 81 29 82 34 83
REMARK Flexibility Score: inf
ROOT
ATOM      1  C   UNL     1       0.011  31.043  14.816  1.00  0.00    -0.053 C 
ATOM      2  H   UNL     1      -0.992  30.593  14.806  1.00  0.00     0.027 H 
ATOM      3  H   UNL     1       0.693  30.434  14.206  1.00  0.00     0.027 H 
ENDROOT
BRANCH   1   4
ATOM      4  C   UNL     1       0.519  31.054  16.240  1.00  0.00    -0.053 C 
ATOM      5  H   UNL     1       0.753  32.089  16.532  1.00  0.00     0.027 H 
ATOM      6  H   UNL     1      -0.261  30.654  16.905  1.00  0.00     0.027 H 
BRANCH   4   7
ATOM      7  C   UNL     1       1.762  30.209  16.371  1.00  0.00    -0.053 C 
ATOM      8  H   UNL     1       1.488  29.151  16.247  1.00  0.00     0.027 H 
ATOM      9  H   UNL     1       2.473  30.499  15.583  1.00  0.00     0.027 H 
BRANCH   7  10
ATOM     10  C   UNL     1       2.429  30.391  17.727  1.00  0.00    -0.048 C 
ATOM     11  H   UNL     1       2.636  31.458  17.891  1.00  0.00     0.027 H 
ATOM     12  H   UNL     1       1.755  30.024  18.515  1.00  0.00     0.027 H 
BRANCH  10  13
ATOM     13  C   UNL     1       3.725  29.617  17.779  1.00  0.00    -0.004 C 
ATOM     14  H   UNL     1       3.752  29.022  18.703  1.00  0.00     0.032 H 
ATOM     15  H   UNL     1       3.779  28.947  16.909  1.00  0.00     0.032 H 
BRANCH  13  16
ATOM     16  C   UNL     1       4.937  30.567  17.758  1.00  0.00     0.076 C 
ATOM     17  H   UNL     1       5.764  30.154  18.354  1.00  0.00     0.092 H 
ATOM     18  H   UNL     1       5.277  30.738  16.727  1.00  0.00     0.092 H 
BRANCH  16  19
ATOM     19  N   UNL     1       4.420  31.873  18.382  1.00  0.00    -0.340 N 
ATOM     20  H   UNL     1       3.430  31.906  18.194  1.00  0.00     0.346 HD
ATOM     21  H   UNL     1       4.571  31.793  19.375  1.00  0.00     0.346 HD
BRANCH  19  22
ATOM     22  C   UNL     1       4.977  33.216  17.972  1.00  0.00     0.113 C 
ATOM     23  C   UNL     1       4.629  33.863  13.591  1.00  0.00     0.248 A 
ATOM     24  C   UNL     1       3.390  33.617  14.422  1.00  0.00     0.004 A 
ATOM     25  O   UNL     1       4.635  34.028  12.355  1.00  0.00    -0.270 OA
ATOM     26  N   UNL     1       5.812  33.849  14.311  1.00  0.00    -0.326 N 
ATOM     27  C   UNL     1       3.525  33.405  15.775  1.00  0.00    -0.046 A 
ATOM     28  H   UNL     1       2.406  33.608  13.956  1.00  0.00     0.068 H 
ATOM     29  C   UNL     1       5.966  33.652  15.655  1.00  0.00     0.027 A 
ATOM     30  H   UNL     1       6.651  34.000  13.788  1.00  0.00     0.169 HD
ATOM     31  C   UNL     1       4.858  33.398  16.444  1.00  0.00     0.029 A 
ATOM     32  H   UNL     1       2.632  33.239  16.375  1.00  0.00     0.063 H 
ATOM     33  C   UNL     1       7.395  33.726  16.207  1.00  0.00    -0.012 C 
ATOM     34  C   UNL     1       7.524  32.938  17.523  1.00  0.00    -0.042 C 
ATOM     35  H   UNL     1       7.654  34.779  16.392  1.00  0.00     0.033 H 
ATOM     36  H   UNL     1       8.088  33.303  15.465  1.00  0.00     0.033 H 
ATOM     37  C   UNL     1       6.416  33.373  18.535  1.00  0.00     0.004 C 
ATOM     38  H   UNL     1       4.359  33.997  18.439  1.00  0.00     0.102 H 
ATOM     39  H   UNL     1       7.421  31.863  17.313  1.00  0.00     0.027 H 
ATOM     40  H   UNL     1       8.513  33.132  17.965  1.00  0.00     0.027 H 
ATOM     41  H   UNL     1       6.507  32.754  19.439  1.00  0.00     0.033 H 
ATOM     42  H   UNL     1       6.575  34.429  18.795  1.00  0.00     0.033 H 
ENDBRANCH  19  22
ENDBRANCH  16  19
ENDBRANCH  13  16
ENDBRANCH  10  13
ENDBRANCH   7  10
ENDBRANCH   4   7
ENDBRANCH   1   4
BRANCH   1  43
ATOM     43  C   UNL     1      -0.076  32.428  14.208  1.00  0.00    -0.053 C 
ATOM     44  H   UNL     1       0.286  32.375  13.170  1.00  0.00     0.027 H 
ATOM     45  H   UNL     1       0.568  33.104  14.787  1.00  0.00     0.027 H 
BRANCH  43  46
ATOM     46  C   UNL     1      -1.484  32.996  14.196  1.00  0.00    -0.053 C 
ATOM     47  H   UNL     1      -1.607  33.676  15.054  1.00  0.00     0.027 H 
ATOM     48  H   UNL     1      -2.207  32.172  14.276  1.00  0.00     0.027 H 
BRANCH  46  49
ATOM     49  C   UNL     1      -1.746  33.765  12.912  1.00  0.00    -0.053 C 
ATOM     50  H   UNL     1      -2.834  33.847  12.774  1.00  0.00     0.027 H 
ATOM     51  H   UNL     1      -1.311  33.200  12.075  1.00  0.00     0.027 H 
BRANCH  49  52
ATOM     52  C   UNL     1      -1.152  35.170  12.903  1.00  0.00    -0.048 C 
ATOM     53  H   UNL     1      -0.717  35.373  13.892  1.00  0.00     0.027 H 
ATOM     54  H   UNL     1      -1.960  35.889  12.704  1.00  0.00     0.027 H 
BRANCH  52  55
ATOM     55  C   UNL     1      -0.055  35.361  11.839  1.00  0.00    -0.004 C 
ATOM     56  H   UNL     1      -0.378  34.869  10.910  1.00  0.00     0.032 H 
ATOM     57  H   UNL     1       0.870  34.888  12.202  1.00  0.00     0.032 H 
BRANCH  55  58
ATOM     58  C   UNL     1       0.241  36.834  11.532  1.00  0.00     0.076 C 
ATOM     59  H   UNL     1      -0.227  37.481  12.289  1.00  0.00     0.092 H 
ATOM     60  H   UNL     1      -0.142  37.100  10.536  1.00  0.00     0.092 H 
BRANCH  58  61
ATOM     61  N   UNL     1       1.717  36.984  11.572  1.00  0.00    -0.340 N 
ATOM     62  H   UNL     1       2.039  36.970  10.617  1.00  0.00     0.346 HD
ATOM     63  H   UNL     1       2.081  36.181  12.062  1.00  0.00     0.346 HD
BRANCH  61  64
ATOM     64  C   UNL     1       2.320  38.212  12.225  1.00  0.00     0.113 C 
ATOM     65  C   UNL     1       2.151  39.511  11.442  1.00  0.00     0.029 A 
ATOM     66  C   UNL     1       3.777  37.870  12.601  1.00  0.00     0.004 C 
ATOM     67  H   UNL     1       1.776  38.368  13.169  1.00  0.00     0.102 H 
ATOM     68  C   UNL     1       3.207  40.417  11.359  1.00  0.00     0.027 A 
ATOM     69  C   UNL     1       0.866  39.867  10.790  1.00  0.00    -0.046 A 
ATOM     70  C   UNL     1       4.518  39.115  13.103  1.00  0.00    -0.042 C 
ATOM     71  H   UNL     1       4.294  37.475  11.715  1.00  0.00     0.033 H 
ATOM     72  H   UNL     1       3.775  37.108  13.395  1.00  0.00     0.033 H 
ATOM     73  N   UNL     1       3.023  41.589  10.684  1.00  0.00    -0.326 N 
ATOM     74  C   UNL     1       4.597  40.172  11.985  1.00  0.00    -0.012 C 
ATOM     75  C   UNL     1       0.698  41.042  10.122  1.00  0.00     0.004 A 
ATOM     76  H   UNL     1       0.033  39.168  10.846  1.00  0.00     0.063 H 
ATOM     77  H   UNL     1       3.979  39.537  13.964  1.00  0.00     0.027 H 
ATOM     78  H   UNL     1       5.536  38.834  13.408  1.00  0.00     0.027 H 
ATOM     79  C   UNL     1       1.856  42.018  10.062  1.00  0.00     0.248 A 
ATOM     80  H   UNL     1       3.810  42.204  10.633  1.00  0.00     0.169 HD
ATOM     81  H   UNL     1       4.972  41.115  12.408  1.00  0.00     0.033 H 
ATOM     82  H   UNL     1       5.287  39.820  11.204  1.00  0.00     0.033 H 
ATOM     83  H   UNL     1      -0.249  41.276   9.640  1.00  0.00     0.068 H 
ATOM     84  O   UNL     1       1.787  43.160   9.585  1.00  0.00    -0.270 OA
ENDBRANCH  61  64
ENDBRANCH  58  61
ENDBRANCH  55  58
ENDBRANCH  52  55
ENDBRANCH  49  52
ENDBRANCH  46  49
ENDBRANCH  43  46
ENDBRANCH   1  43
TORSDOF 15
ENDMDL
MODEL 8
REMARK VINA RESULT:      -7.1      3.863     10.881
REMARK SMILES O=c1ccc2c([nH]1)CCC[C@@H]2[NH2+]CCCCCCCCCCCC[NH2+][C@H]1CCCc2[nH]c(=O)ccc21
REMARK SMILES IDX 18 1 17 4 16 7 15 10 14 13 13 16 12 19 11 22 2 23 3 24 1 25
REMARK SMILES IDX 7 26 4 27 6 29 5 31 8 33 9 34 10 37 19 43 20 46 21 49 22 52
REMARK SMILES IDX 23 55 24 58 25 61 26 64 36 65 27 66 30 68 35 69 28 70 31 73
REMARK SMILES IDX 29 74 34 75 32 79 33 84
REMARK H PARENT 18 2 18 3 17 5 17 6 16 8 16 9 15 11 15 12 14 14 14 15 13 17
REMARK H PARENT 13 18 12 20 12 21 3 28 7 30 4 32 8 35 8 36 11 38 9 39 9 40
REMARK H PARENT 10 41 10 42 19 44 19 45 20 47 20 48 21 50 21 51 22 53 22 54
REMARK H PARENT 23 56 23 57 24 59 24 60 25 62 25 63 26 67 27 71 27 72 35 76
REMARK H PARENT 28 77 28 78 31 80 29 81 29 82 34 83
REMARK Flexibility Score: inf
ROOT
ATOM      1  C   UNL     1       8.905  30.651  19.770  1.00  0.00    -0.053 C 
ATOM      2  H   UNL     1       9.760  30.006  20.020  1.00  0.00     0.027 H 
ATOM      3  H   UNL     1       8.408  30.977  20.695  1.00  0.00     0.027 H 
ENDROOT
BRANCH   1   4
ATOM      4  C   UNL     1       7.921  29.849  18.950  1.00  0.00    -0.053 C 
ATOM      5  H   UNL     1       7.529  30.480  18.137  1.00  0.00     0.027 H 
ATOM      6  H   UNL     1       8.435  28.977  18.521  1.00  0.00     0.027 H 
BRANCH   4   7
ATOM      7  C   UNL     1       6.772  29.376  19.806  1.00  0.00    -0.053 C 
ATOM      8  H   UNL     1       6.264  28.547  19.292  1.00  0.00     0.027 H 
ATOM      9  H   UNL     1       7.169  29.022  20.769  1.00  0.00     0.027 H 
BRANCH   7  10
ATOM     10  C   UNL     1       5.765  30.487  20.066  1.00  0.00    -0.048 C 
ATOM     11  H   UNL     1       5.605  30.586  21.150  1.00  0.00     0.027 H 
ATOM     12  H   UNL     1       6.157  31.434  19.666  1.00  0.00     0.027 H 
BRANCH  10  13
ATOM     13  C   UNL     1       4.451  30.168  19.395  1.00  0.00    -0.004 C 
ATOM     14  H   UNL     1       3.836  31.078  19.357  1.00  0.00     0.032 H 
ATOM     15  H   UNL     1       4.646  29.814  18.372  1.00  0.00     0.032 H 
BRANCH  13  16
ATOM     16  C   UNL     1       3.687  29.076  20.167  1.00  0.00     0.076 C 
ATOM     17  H   UNL     1       3.776  28.106  19.657  1.00  0.00     0.092 H 
ATOM     18  H   UNL     1       4.070  28.987  21.194  1.00  0.00     0.092 H 
BRANCH  16  19
ATOM     19  N   UNL     1       2.226  29.552  20.173  1.00  0.00    -0.340 N 
ATOM     20  H   UNL     1       1.906  29.477  21.126  1.00  0.00     0.346 HD
ATOM     21  H   UNL     1       2.241  30.521  19.899  1.00  0.00     0.346 HD
BRANCH  19  22
ATOM     22  C   UNL     1       1.176  28.884  19.318  1.00  0.00     0.113 C 
ATOM     23  C   UNL     1       1.741  24.479  19.178  1.00  0.00     0.248 A 
ATOM     24  C   UNL     1       1.516  25.174  20.503  1.00  0.00     0.004 A 
ATOM     25  O   UNL     1       1.936  23.256  19.041  1.00  0.00    -0.270 OA
ATOM     26  N   UNL     1       1.763  25.329  18.085  1.00  0.00    -0.326 N 
ATOM     27  C   UNL     1       1.358  26.541  20.522  1.00  0.00    -0.046 A 
ATOM     28  H   UNL     1       1.480  24.600  21.427  1.00  0.00     0.068 H 
ATOM     29  C   UNL     1       1.597  26.686  18.081  1.00  0.00     0.027 A 
ATOM     30  H   UNL     1       1.918  24.901  17.195  1.00  0.00     0.169 HD
ATOM     31  C   UNL     1       1.415  27.359  19.276  1.00  0.00     0.029 A 
ATOM     32  H   UNL     1       1.185  27.039  21.474  1.00  0.00     0.063 H 
ATOM     33  C   UNL     1       1.627  27.384  16.716  1.00  0.00    -0.012 C 
ATOM     34  C   UNL     1       2.021  28.865  16.858  1.00  0.00    -0.042 C 
ATOM     35  H   UNL     1       0.628  27.320  16.258  1.00  0.00     0.033 H 
ATOM     36  H   UNL     1       2.359  26.877  16.070  1.00  0.00     0.033 H 
ATOM     37  C   UNL     1       1.127  29.572  17.927  1.00  0.00     0.004 C 
ATOM     38  H   UNL     1       0.197  29.043  19.794  1.00  0.00     0.102 H 
ATOM     39  H   UNL     1       3.075  28.931  17.166  1.00  0.00     0.027 H 
ATOM     40  H   UNL     1       1.890  29.369  15.888  1.00  0.00     0.027 H 
ATOM     41  H   UNL     1       1.471  30.610  18.038  1.00  0.00     0.033 H 
ATOM     42  H   UNL     1       0.086  29.566  17.571  1.00  0.00     0.033 H 
ENDBRANCH  19  22
ENDBRANCH  16  19
ENDBRANCH  13  16
ENDBRANCH  10  13
ENDBRANCH   7  10
ENDBRANCH   4   7
ENDBRANCH   1   4
BRANCH   1  43
ATOM     43  C   UNL     1       9.422  31.876  19.043  1.00  0.00    -0.053 C 
ATOM     44  H   UNL     1      10.437  31.661  18.676  1.00  0.00     0.027 H 
ATOM     45  H   UNL     1       9.458  32.714  19.754  1.00  0.00     0.027 H 
BRANCH  43  46
ATOM     46  C   UNL     1       8.561  32.286  17.860  1.00  0.00    -0.053 C 
ATOM     47  H   UNL     1       7.919  31.440  17.570  1.00  0.00     0.027 H 
ATOM     48  H   UNL     1       9.212  32.557  17.016  1.00  0.00     0.027 H 
BRANCH  46  49
ATOM     49  C   UNL     1       7.686  33.475  18.216  1.00  0.00    -0.053 C 
ATOM     50  H   UNL     1       8.318  34.238  18.694  1.00  0.00     0.027 H 
ATOM     51  H   UNL     1       6.916  33.139  18.925  1.00  0.00     0.027 H 
BRANCH  49  52
ATOM     52  C   UNL     1       6.989  34.110  17.016  1.00  0.00    -0.048 C 
ATOM     53  H   UNL     1       7.732  34.255  16.218  1.00  0.00     0.027 H 
ATOM     54  H   UNL     1       6.585  35.085  17.323  1.00  0.00     0.027 H 
BRANCH  52  55
ATOM     55  C   UNL     1       5.835  33.255  16.459  1.00  0.00    -0.004 C 
ATOM     56  H   UNL     1       4.904  33.837  16.529  1.00  0.00     0.032 H 
ATOM     57  H   UNL     1       5.746  32.346  17.072  1.00  0.00     0.032 H 
BRANCH  55  58
ATOM     58  C   UNL     1       6.041  32.839  14.998  1.00  0.00     0.076 C 
ATOM     59  H   UNL     1       6.646  31.921  14.946  1.00  0.00     0.092 H 
ATOM     60  H   UNL     1       6.545  33.642  14.440  1.00  0.00     0.092 H 
BRANCH  58  61
ATOM     61  N   UNL     1       4.689  32.592  14.437  1.00  0.00    -0.340 N 
ATOM     62  H   UNL     1       4.250  31.900  15.023  1.00  0.00     0.346 HD
ATOM     63  H   UNL     1       4.818  32.216  13.511  1.00  0.00     0.346 HD
BRANCH  61  64
ATOM     64  C   UNL     1       3.716  33.748  14.313  1.00  0.00     0.113 C 
ATOM     65  C   UNL     1       2.243  33.353  14.252  1.00  0.00     0.029 A 
ATOM     66  C   UNL     1       4.195  34.635  13.145  1.00  0.00     0.004 C 
ATOM     67  H   UNL     1       3.819  34.348  15.230  1.00  0.00     0.102 H 
ATOM     68  C   UNL     1       1.384  34.001  13.367  1.00  0.00     0.027 A 
ATOM     69  C   UNL     1       1.678  32.312  15.147  1.00  0.00    -0.046 A 
ATOM     70  C   UNL     1       3.167  35.730  12.833  1.00  0.00    -0.042 C 
ATOM     71  H   UNL     1       4.337  34.009  12.252  1.00  0.00     0.033 H 
ATOM     72  H   UNL     1       5.151  35.107  13.418  1.00  0.00     0.033 H 
ATOM     73  N   UNL     1       0.063  33.657  13.354  1.00  0.00    -0.326 N 
ATOM     74  C   UNL     1       1.839  35.096  12.378  1.00  0.00    -0.012 C 
ATOM     75  C   UNL     1       0.357  31.982  15.123  1.00  0.00     0.004 A 
ATOM     76  H   UNL     1       2.338  31.797  15.843  1.00  0.00     0.063 H 
ATOM     77  H   UNL     1       2.992  36.332  13.737  1.00  0.00     0.027 H 
ATOM     78  H   UNL     1       3.554  36.375  12.031  1.00  0.00     0.027 H 
ATOM     79  C   UNL     1      -0.561  32.714  14.164  1.00  0.00     0.248 A 
ATOM     80  H   UNL     1      -0.517  34.133  12.693  1.00  0.00     0.169 HD
ATOM     81  H   UNL     1       1.067  35.877  12.327  1.00  0.00     0.033 H 
ATOM     82  H   UNL     1       1.975  34.649  11.383  1.00  0.00     0.033 H 
ATOM     83  H   UNL     1      -0.033  31.206  15.778  1.00  0.00     0.068 H 
ATOM     84  O   UNL     1      -1.792  32.582  14.132  1.00  0.00    -0.270 OA
ENDBRANCH  61  64
ENDBRANCH  58  61
ENDBRANCH  55  58
ENDBRANCH  52  55
ENDBRANCH  49  52
ENDBRANCH  46  49
ENDBRANCH  43  46
ENDBRANCH   1  43
TORSDOF 15
ENDMDL
MODEL 9
REMARK VINA RESULT:      -7.0      3.630     12.843
REMARK SMILES O=c1ccc2c([nH]1)CCC[C@@H]2[NH2+]CCCCCCCCCCCC[NH2+][C@H]1CCCc2[nH]c(=O)ccc21
REMARK SMILES IDX 18 1 17 4 16 7 15 10 14 13 13 16 12 19 11 22 2 23 3 24 1 25
REMARK SMILES IDX 7 26 4 27 6 29 5 31 8 33 9 34 10 37 19 43 20 46 21 49 22 52
REMARK SMILES IDX 23 55 24 58 25 61 26 64 36 65 27 66 30 68 35 69 28 70 31 73
REMARK SMILES IDX 29 74 34 75 32 79 33 84
REMARK H PARENT 18 2 18 3 17 5 17 6 16 8 16 9 15 11 15 12 14 14 14 15 13 17
REMARK H PARENT 13 18 12 20 12 21 3 28 7 30 4 32 8 35 8 36 11 38 9 39 9 40
REMARK H PARENT 10 41 10 42 19 44 19 45 20 47 20 48 21 50 21 51 22 53 22 54
REMARK H PARENT 23 56 23 57 24 59 24 60 25 62 25 63 26 67 27 71 27 72 35 76
REMARK H PARENT 28 77 28 78 31 80 29 81 29 82 34 83
REMARK Flexibility Score: inf
ROOT
ATOM      1  C   UNL     1       6.357  32.389  19.094  1.00  0.00    -0.053 C 
ATOM      2  H   UNL     1       5.283  32.327  19.322  1.00  0.00     0.027 H 
ATOM      3  H   UNL     1       6.593  31.717  18.256  1.00  0.00     0.027 H 
ENDROOT
BRANCH   1   4
ATOM      4  C   UNL     1       7.134  31.934  20.308  1.00  0.00    -0.053 C 
ATOM      5  H   UNL     1       7.443  32.816  20.890  1.00  0.00     0.027 H 
ATOM      6  H   UNL     1       6.491  31.293  20.929  1.00  0.00     0.027 H 
BRANCH   4   7
ATOM      7  C   UNL     1       8.361  31.157  19.898  1.00  0.00    -0.053 C 
ATOM      8  H   UNL     1       9.146  31.866  19.597  1.00  0.00     0.027 H 
ATOM      9  H   UNL     1       8.710  30.565  20.757  1.00  0.00     0.027 H 
BRANCH   7  10
ATOM     10  C   UNL     1       8.073  30.218  18.736  1.00  0.00    -0.048 C 
ATOM     11  H   UNL     1       7.159  30.548  18.220  1.00  0.00     0.027 H 
ATOM     12  H   UNL     1       8.918  30.239  18.032  1.00  0.00     0.027 H 
BRANCH  10  13
ATOM     13  C   UNL     1       7.880  28.807  19.241  1.00  0.00    -0.004 C 
ATOM     14  H   UNL     1       8.861  28.318  19.325  1.00  0.00     0.032 H 
ATOM     15  H   UNL     1       7.401  28.842  20.230  1.00  0.00     0.032 H 
BRANCH  13  16
ATOM     16  C   UNL     1       6.993  27.993  18.280  1.00  0.00     0.076 C 
ATOM     17  H   UNL     1       6.157  28.605  17.912  1.00  0.00     0.092 H 
ATOM     18  H   UNL     1       7.582  27.626  17.427  1.00  0.00     0.092 H 
BRANCH  16  19
ATOM     19  N   UNL     1       6.475  26.820  19.126  1.00  0.00    -0.340 N 
ATOM     20  H   UNL     1       5.862  26.287  18.529  1.00  0.00     0.346 HD
ATOM     21  H   UNL     1       7.280  26.264  19.364  1.00  0.00     0.346 HD
BRANCH  19  22
ATOM     22  C   UNL     1       5.720  27.051  20.413  1.00  0.00     0.113 C 
ATOM     23  C   UNL     1       7.502  24.775  23.787  1.00  0.00     0.248 A 
ATOM     24  C   UNL     1       8.332  25.790  23.034  1.00  0.00     0.004 A 
ATOM     25  O   UNL     1       7.921  24.070  24.726  1.00  0.00    -0.270 OA
ATOM     26  N   UNL     1       6.206  24.637  23.318  1.00  0.00    -0.326 N 
ATOM     27  C   UNL     1       7.762  26.473  21.984  1.00  0.00    -0.046 A 
ATOM     28  H   UNL     1       9.366  25.979  23.320  1.00  0.00     0.068 H 
ATOM     29  C   UNL     1       5.618  25.312  22.286  1.00  0.00     0.027 A 
ATOM     30  H   UNL     1       5.634  23.966  23.790  1.00  0.00     0.169 HD
ATOM     31  C   UNL     1       6.354  26.230  21.557  1.00  0.00     0.029 A 
ATOM     32  H   UNL     1       8.356  27.212  21.449  1.00  0.00     0.063 H 
ATOM     33  C   UNL     1       4.145  24.993  21.999  1.00  0.00    -0.012 C 
ATOM     34  C   UNL     1       3.780  25.322  20.540  1.00  0.00    -0.042 C 
ATOM     35  H   UNL     1       3.512  25.590  22.672  1.00  0.00     0.033 H 
ATOM     36  H   UNL     1       3.968  23.923  22.182  1.00  0.00     0.033 H 
ATOM     37  C   UNL     1       4.208  26.781  20.182  1.00  0.00     0.004 C 
ATOM     38  H   UNL     1       5.823  28.112  20.683  1.00  0.00     0.102 H 
ATOM     39  H   UNL     1       4.295  24.618  19.870  1.00  0.00     0.027 H 
ATOM     40  H   UNL     1       2.691  25.223  20.409  1.00  0.00     0.027 H 
ATOM     41  H   UNL     1       3.979  26.962  19.121  1.00  0.00     0.033 H 
ATOM     42  H   UNL     1       3.630  27.479  20.806  1.00  0.00     0.033 H 
ENDBRANCH  19  22
ENDBRANCH  16  19
ENDBRANCH  13  16
ENDBRANCH  10  13
ENDBRANCH   7  10
ENDBRANCH   4   7
ENDBRANCH   1   4
BRANCH   1  43
ATOM     43  C   UNL     1       6.682  33.810  18.681  1.00  0.00    -0.053 C 
ATOM     44  H   UNL     1       7.581  34.134  19.225  1.00  0.00     0.027 H 
ATOM     45  H   UNL     1       5.834  34.454  18.954  1.00  0.00     0.027 H 
BRANCH  43  46
ATOM     46  C   UNL     1       6.941  33.962  17.192  1.00  0.00    -0.053 C 
ATOM     47  H   UNL     1       7.797  33.331  16.907  1.00  0.00     0.027 H 
ATOM     48  H   UNL     1       7.173  35.014  16.971  1.00  0.00     0.027 H 
BRANCH  46  49
ATOM     49  C   UNL     1       5.724  33.541  16.386  1.00  0.00    -0.053 C 
ATOM     50  H   UNL     1       5.033  34.395  16.332  1.00  0.00     0.027 H 
ATOM     51  H   UNL     1       5.236  32.705  16.907  1.00  0.00     0.027 H 
BRANCH  49  52
ATOM     52  C   UNL     1       6.050  33.096  14.963  1.00  0.00    -0.048 C 
ATOM     53  H   UNL     1       6.590  32.139  15.012  1.00  0.00     0.027 H 
ATOM     54  H   UNL     1       6.693  33.857  14.498  1.00  0.00     0.027 H 
BRANCH  52  55
ATOM     55  C   UNL     1       4.800  32.906  14.083  1.00  0.00    -0.004 C 
ATOM     56  H   UNL     1       3.908  32.975  14.723  1.00  0.00     0.032 H 
ATOM     57  H   UNL     1       4.845  31.907  13.623  1.00  0.00     0.032 H 
BRANCH  55  58
ATOM     58  C   UNL     1       4.681  33.951  12.967  1.00  0.00     0.076 C 
ATOM     59  H   UNL     1       5.250  33.628  12.082  1.00  0.00     0.092 H 
ATOM     60  H   UNL     1       5.063  34.922  13.313  1.00  0.00     0.092 H 
BRANCH  58  61
ATOM     61  N   UNL     1       3.237  34.053  12.639  1.00  0.00    -0.340 N 
ATOM     62  H   UNL     1       2.817  33.171  12.890  1.00  0.00     0.346 HD
ATOM     63  H   UNL     1       3.170  34.186  11.642  1.00  0.00     0.346 HD
BRANCH  61  64
ATOM     64  C   UNL     1       2.405  35.141  13.288  1.00  0.00     0.113 C 
ATOM     65  C   UNL     1       0.920  35.119  12.935  1.00  0.00     0.029 A 
ATOM     66  C   UNL     1       3.111  36.487  13.022  1.00  0.00     0.004 C 
ATOM     67  H   UNL     1       2.449  34.967  14.374  1.00  0.00     0.102 H 
ATOM     68  C   UNL     1       0.247  36.313  12.682  1.00  0.00     0.027 A 
ATOM     69  C   UNL     1       0.148  33.852  12.891  1.00  0.00    -0.046 A 
ATOM     70  C   UNL     1       2.243  37.661  13.489  1.00  0.00    -0.042 C 
ATOM     71  H   UNL     1       3.304  36.586  11.945  1.00  0.00     0.033 H 
ATOM     72  H   UNL     1       4.066  36.507  13.569  1.00  0.00     0.033 H 
ATOM     73  N   UNL     1      -1.089  36.274  12.403  1.00  0.00    -0.326 N 
ATOM     74  C   UNL     1       0.927  37.698  12.688  1.00  0.00    -0.012 C 
ATOM     75  C   UNL     1      -1.186  33.831  12.614  1.00  0.00     0.004 A 
ATOM     76  H   UNL     1       0.662  32.912  13.087  1.00  0.00     0.063 H 
ATOM     77  H   UNL     1       2.014  37.542  14.558  1.00  0.00     0.027 H 
ATOM     78  H   UNL     1       2.789  38.602  13.332  1.00  0.00     0.027 H 
ATOM     79  C   UNL     1      -1.899  35.143  12.361  1.00  0.00     0.248 A 
ATOM     80  H   UNL     1      -1.532  37.149  12.210  1.00  0.00     0.169 HD
ATOM     81  H   UNL     1       0.247  38.430  13.147  1.00  0.00     0.033 H 
ATOM     82  H   UNL     1       1.144  37.998  11.652  1.00  0.00     0.033 H 
ATOM     83  H   UNL     1      -1.729  32.889  12.575  1.00  0.00     0.068 H 
ATOM     84  O   UNL     1      -3.123  35.260  12.212  1.00  0.00    -0.270 OA
ENDBRANCH  61  64
ENDBRANCH  58  61
ENDBRANCH  55  58
ENDBRANCH  52  55
ENDBRANCH  49  52
ENDBRANCH  46  49
ENDBRANCH  43  46
ENDBRANCH   1  43
TORSDOF 15
ENDMDL
