REMARK SMILES O=c1ccc2c([nH]1)CCC[C@@H]2[NH2+]CCCCCCCCCCCC[NH2+][C@H]1CCCc2[nH]c(=O)ccc21
REMARK SMILES IDX 18 1 17 4 16 7 15 10 14 13 13 16 12 19 11 22 2 23 3 24 1 25
REMARK SMILES IDX 7 26 4 27 6 29 5 31 8 33 9 34 10 37 19 43 20 46 21 49 22 52
REMARK SMILES IDX 23 55 24 58 25 61 26 64 36 65 27 66 30 68 35 69 28 70 31 73
REMARK SMILES IDX 29 74 34 75 32 79 33 84
REMARK H PARENT 18 2 18 3 17 5 17 6 16 8 16 9 15 11 15 12 14 14 14 15 13 17
REMARK H PARENT 13 18 12 20 12 21 3 28 7 30 4 32 8 35 8 36 11 38 9 39 9 40
REMARK H PARENT 10 41 10 42 19 44 19 45 20 47 20 48 21 50 21 51 22 53 22 54
REMARK H PARENT 23 56 23 57 24 59 24 60 25 62 25 63 26 67 27 71 27 72 35 76
REMARK H PARENT 28 77 28 78 31 80 29 81 29 82 34 83
REMARK Flexibility Score: inf
ROOT
ATOM      1  C   UNL     1       4.535  64.136  70.296  1.00  0.00    -0.053 C 
ATOM      2  H   UNL     1       5.116  64.031  71.224  1.00  0.00     0.027 H 
ATOM      3  H   UNL     1       5.003  63.538  69.501  1.00  0.00     0.027 H 
ENDROOT
BRANCH   1   4
ATOM      4  C   UNL     1       4.552  65.589  69.879  1.00  0.00    -0.053 C 
ATOM      5  H   UNL     1       4.029  66.189  70.639  1.00  0.00     0.027 H 
ATOM      6  H   UNL     1       5.595  65.929  69.798  1.00  0.00     0.027 H 
BRANCH   4   7
ATOM      7  C   UNL     1       3.867  65.771  68.547  1.00  0.00    -0.053 C 
ATOM      8  H   UNL     1       4.229  64.998  67.853  1.00  0.00     0.027 H 
ATOM      9  H   UNL     1       2.782  65.660  68.687  1.00  0.00     0.027 H 
BRANCH   7  10
ATOM     10  C   UNL     1       4.149  67.142  67.949  1.00  0.00    -0.048 C 
ATOM     11  H   UNL     1       3.389  67.855  68.301  1.00  0.00     0.027 H 
ATOM     12  H   UNL     1       5.145  67.481  68.270  1.00  0.00     0.027 H 
BRANCH  10  13
ATOM     13  C   UNL     1       4.108  67.072  66.441  1.00  0.00    -0.004 C 
ATOM     14  H   UNL     1       4.612  67.957  66.026  1.00  0.00     0.032 H 
ATOM     15  H   UNL     1       4.630  66.163  66.109  1.00  0.00     0.032 H 
BRANCH  13  16
ATOM     16  C   UNL     1       2.656  67.034  65.929  1.00  0.00     0.076 C 
ATOM     17  H   UNL     1       2.129  66.153  66.323  1.00  0.00     0.092 H 
ATOM     18  H   UNL     1       2.117  67.946  66.224  1.00  0.00     0.092 H 
BRANCH  16  19
ATOM     19  N   UNL     1       2.783  66.950  64.400  1.00  0.00    -0.340 N 
ATOM     20  H   UNL     1       3.461  66.229  64.210  1.00  0.00     0.346 HD
ATOM     21  H   UNL     1       1.881  66.663  64.055  1.00  0.00     0.346 HD
BRANCH  19  22
ATOM     22  C   UNL     1       3.193  68.148  63.577  1.00  0.00     0.113 C 
ATOM     23  C   UNL     1       0.095  69.209  60.575  1.00  0.00     0.248 A 
ATOM     24  C   UNL     1      -0.247  69.202  62.048  1.00  0.00     0.004 A 
ATOM     25  O   UNL     1      -0.711  69.466  59.659  1.00  0.00    -0.270 OA
ATOM     26  N   UNL     1       1.403  68.853  60.291  1.00  0.00    -0.326 N 
ATOM     27  C   UNL     1       0.726  68.856  62.958  1.00  0.00    -0.046 A 
ATOM     28  H   UNL     1      -1.248  69.467  62.383  1.00  0.00     0.068 H 
ATOM     29  C   UNL     1       2.386  68.518  61.179  1.00  0.00     0.027 A 
ATOM     30  H   UNL     1       1.658  68.840  59.324  1.00  0.00     0.169 HD
ATOM     31  C   UNL     1       2.104  68.475  62.533  1.00  0.00     0.029 A 
ATOM     32  H   UNL     1       0.483  68.862  64.019  1.00  0.00     0.063 H 
ATOM     33  C   UNL     1       3.769  68.202  60.595  1.00  0.00    -0.012 C 
ATOM     34  C   UNL     1       4.581  67.303  61.545  1.00  0.00    -0.042 C 
ATOM     35  H   UNL     1       4.315  69.144  60.437  1.00  0.00     0.033 H 
ATOM     36  H   UNL     1       3.642  67.686  59.632  1.00  0.00     0.033 H 
ATOM     37  C   UNL     1       4.609  67.909  62.985  1.00  0.00     0.004 C 
ATOM     38  H   UNL     1       3.265  69.015  64.250  1.00  0.00     0.102 H 
ATOM     39  H   UNL     1       4.120  66.305  61.581  1.00  0.00     0.027 H 
ATOM     40  H   UNL     1       5.612  67.218  61.169  1.00  0.00     0.027 H 
ATOM     41  H   UNL     1       5.151  67.216  63.645  1.00  0.00     0.033 H 
ATOM     42  H   UNL     1       5.139  68.872  62.949  1.00  0.00     0.033 H 
ENDBRANCH  19  22
ENDBRANCH  16  19
ENDBRANCH  13  16
ENDBRANCH  10  13
ENDBRANCH   7  10
ENDBRANCH   4   7
ENDBRANCH   1   4
BRANCH   1  43
ATOM     43  C   UNL     1       3.137  63.606  70.540  1.00  0.00    -0.053 C 
ATOM     44  H   UNL     1       2.594  63.602  69.583  1.00  0.00     0.027 H 
ATOM     45  H   UNL     1       2.629  64.276  71.248  1.00  0.00     0.027 H 
BRANCH  43  46
ATOM     46  C   UNL     1       3.115  62.198  71.110  1.00  0.00    -0.053 C 
ATOM     47  H   UNL     1       3.508  62.218  72.138  1.00  0.00     0.027 H 
ATOM     48  H   UNL     1       3.747  61.547  70.489  1.00  0.00     0.027 H 
BRANCH  46  49
ATOM     49  C   UNL     1       1.700  61.646  71.130  1.00  0.00    -0.053 C 
ATOM     50  H   UNL     1       1.431  61.347  70.106  1.00  0.00     0.027 H 
ATOM     51  H   UNL     1       1.022  62.442  71.470  1.00  0.00     0.027 H 
BRANCH  49  52
ATOM     52  C   UNL     1       1.521  60.439  72.046  1.00  0.00    -0.048 C 
ATOM     53  H   UNL     1       2.381  59.767  71.910  1.00  0.00     0.027 H 
ATOM     54  H   UNL     1       0.598  59.916  71.758  1.00  0.00     0.027 H 
BRANCH  52  55
ATOM     55  C   UNL     1       1.426  60.814  73.537  1.00  0.00    -0.004 C 
ATOM     56  H   UNL     1       0.440  61.266  73.722  1.00  0.00     0.032 H 
ATOM     57  H   UNL     1       2.214  61.548  73.764  1.00  0.00     0.032 H 
BRANCH  55  58
ATOM     58  C   UNL     1       1.595  59.613  74.475  1.00  0.00     0.076 C 
ATOM     59  H   UNL     1       1.156  58.712  74.021  1.00  0.00     0.092 H 
ATOM     60  H   UNL     1       1.107  59.812  75.440  1.00  0.00     0.092 H 
BRANCH  58  61
ATOM     61  N   UNL     1       3.056  59.431  74.665  1.00  0.00    -0.340 N 
ATOM     62  H   UNL     1       3.374  60.194  75.242  1.00  0.00     0.346 HD
ATOM     63  H   UNL     1       3.482  59.498  73.754  1.00  0.00     0.346 HD
BRANCH  61  64
ATOM     64  C   UNL     1       3.567  58.153  75.300  1.00  0.00     0.113 C 
ATOM     65  C   UNL     1       3.135  56.865  74.604  1.00  0.00     0.029 A 
ATOM     66  C   UNL     1       3.232  58.216  76.805  1.00  0.00     0.004 C 
ATOM     67  H   UNL     1       4.664  58.175  75.217  1.00  0.00     0.102 H 
ATOM     68  C   UNL     1       2.748  55.760  75.360  1.00  0.00     0.027 A 
ATOM     69  C   UNL     1       3.152  56.735  73.125  1.00  0.00    -0.046 A 
ATOM     70  C   UNL     1       3.552  56.883  77.492  1.00  0.00    -0.042 C 
ATOM     71  H   UNL     1       2.162  58.437  76.927  1.00  0.00     0.033 H 
ATOM     72  H   UNL     1       3.827  59.014  77.274  1.00  0.00     0.033 H 
ATOM     73  N   UNL     1       2.400  54.607  74.718  1.00  0.00    -0.326 N 
ATOM     74  C   UNL     1       2.679  55.759  76.902  1.00  0.00    -0.012 C 
ATOM     75  C   UNL     1       2.804  55.576  72.500  1.00  0.00     0.004 A 
ATOM     76  H   UNL     1       3.452  57.591  72.522  1.00  0.00     0.063 H 
ATOM     77  H   UNL     1       4.613  56.639  77.336  1.00  0.00     0.027 H 
ATOM     78  H   UNL     1       3.350  56.971  78.569  1.00  0.00     0.027 H 
ATOM     79  C   UNL     1       2.405  54.383  73.345  1.00  0.00     0.248 A 
ATOM     80  H   UNL     1       2.112  53.843  75.295  1.00  0.00     0.169 HD
ATOM     81  H   UNL     1       3.039  54.790  77.277  1.00  0.00     0.033 H 
ATOM     82  H   UNL     1       1.636  55.910  77.216  1.00  0.00     0.033 H 
ATOM     83  H   UNL     1       2.811  55.508  71.414  1.00  0.00     0.068 H 
ATOM     84  O   UNL     1       2.180  53.250  72.898  1.00  0.00    -0.270 OA
ENDBRANCH  61  64
ENDBRANCH  58  61
ENDBRANCH  55  58
ENDBRANCH  52  55
ENDBRANCH  49  52
ENDBRANCH  46  49
ENDBRANCH  43  46
ENDBRANCH   1  43
TORSDOF 15
