MODEL 1
REMARK VINA RESULT:      -6.4      0.000      0.000
REMARK SMILES C[C@H]1O[C@H](O[C@H]2[C@H](O)[C@@H](O)[C@@H](O[C@@H]([C@@H](O)[C@@H](O)C=O)[C@H](O)CO)O[C@@H]2CO)[C@H](O)[C@@H](O)[C@@H]1N[C@H]1C=C(CO)[C@@H](O)[C@H](O)[C@H]1O
REMARK SMILES IDX 6 1 7 2 9 3 11 4 24 5 25 6 5 7 4 8 32 9 30 10 2 11 28 12
REMARK SMILES IDX 3 13 1 14 33 15 34 17 35 18 43 19 36 20 41 21 39 22 44 23
REMARK SMILES IDX 37 25 38 26 42 28 40 30 31 32 29 34 8 36 26 38 27 39 10 41
REMARK SMILES IDX 12 43 13 44 14 45 15 46 16 48 17 49 18 51 19 52 20 53 22 54
REMARK SMILES IDX 23 55 21 57
REMARK H PARENT 33 16 44 24 38 27 42 29 40 31 31 33 29 35 8 37 27 40 10 42
REMARK H PARENT 15 47 17 50 23 56 21 58
REMARK Flexibility Score: inf
ROOT
ATOM      1  C   UNL     1     -30.339 -28.373  16.698  1.00  0.00     0.184 C 
ATOM      2  C   UNL     1     -30.076 -27.199  17.667  1.00  0.00     0.180 C 
ATOM      3  C   UNL     1     -30.742 -25.921  17.176  1.00  0.00     0.202 C 
ATOM      4  C   UNL     1     -30.369 -25.602  15.719  1.00  0.00     0.282 C 
ATOM      5  O   UNL     1     -30.639 -26.721  14.883  1.00  0.00    -0.341 OA
ATOM      6  C   UNL     1     -29.967 -27.932  15.266  1.00  0.00     0.178 C 
ENDROOT
BRANCH   1   7
ATOM      7  O   UNL     1     -29.585 -29.557  17.030  1.00  0.00    -0.341 OA
BRANCH   7   8
ATOM      8  C   UNL     1     -30.372 -30.572  17.665  1.00  0.00     0.282 C 
ATOM      9  C   UNL     1     -28.591 -32.900  17.532  1.00  0.00     0.115 C 
ATOM     10  C   UNL     1     -28.403 -31.786  18.606  1.00  0.00     0.167 C 
ATOM     11  C   UNL     1     -29.509 -32.404  16.366  1.00  0.00     0.138 C 
ATOM     12  C   UNL     1     -29.724 -31.101  18.937  1.00  0.00     0.201 C 
ATOM     13  O   UNL     1     -30.653 -31.665  16.805  1.00  0.00    -0.345 OA
ATOM     14  C   UNL     1     -30.115 -33.571  15.580  1.00  0.00     0.040 C 
BRANCH   9  15
ATOM     15  N   UNL     1     -27.292 -33.429  16.993  1.00  0.00    -0.300 NA
ATOM     16  H   UNL     1     -27.072 -34.325  17.419  1.00  0.00     0.123 HD
BRANCH  15  17
ATOM     17  C   UNL     1     -26.135 -32.519  17.144  1.00  0.00     0.109 C 
ATOM     18  C   UNL     1     -25.108 -33.168  18.015  1.00  0.00    -0.001 C 
ATOM     19  C   UNL     1     -25.576 -31.890  15.826  1.00  0.00     0.167 C 
ATOM     20  C   UNL     1     -23.817 -33.391  17.715  1.00  0.00    -0.016 C 
ATOM     21  C   UNL     1     -24.149 -32.278  15.381  1.00  0.00     0.177 C 
ATOM     22  C   UNL     1     -23.219 -32.962  16.407  1.00  0.00     0.174 C 
BRANCH  19  23
ATOM     23  O   UNL     1     -26.479 -32.064  14.714  1.00  0.00    -0.388 OA
ATOM     24  H   UNL     1     -26.466 -31.247  14.191  1.00  0.00     0.211 HD
ENDBRANCH  19  23
BRANCH  20  25
ATOM     25  C   UNL     1     -22.849 -34.070  18.665  1.00  0.00     0.189 C 
BRANCH  25  26
ATOM     26  O   UNL     1     -21.493 -33.832  18.277  1.00  0.00    -0.392 OA
ATOM     27  H   UNL     1     -20.933 -34.118  19.020  1.00  0.00     0.211 HD
ENDBRANCH  25  26
ENDBRANCH  20  25
BRANCH  21  28
ATOM     28  O   UNL     1     -23.487 -31.080  14.894  1.00  0.00    -0.387 OA
ATOM     29  H   UNL     1     -24.091 -30.600  14.306  1.00  0.00     0.211 HD
ENDBRANCH  21  28
BRANCH  22  30
ATOM     30  O   UNL     1     -22.629 -34.124  15.814  1.00  0.00    -0.386 OA
ATOM     31  H   UNL     1     -23.329 -34.611  15.347  1.00  0.00     0.211 HD
ENDBRANCH  22  30
ENDBRANCH  15  17
ENDBRANCH   9  15
BRANCH  10  32
ATOM     32  O   UNL     1     -27.904 -32.299  19.862  1.00  0.00    -0.388 OA
ATOM     33  H   UNL     1     -27.680 -33.239  19.738  1.00  0.00     0.211 HD
ENDBRANCH  10  32
BRANCH  12  34
ATOM     34  O   UNL     1     -29.559 -30.070  19.920  1.00  0.00    -0.385 OA
ATOM     35  H   UNL     1     -30.444 -29.862  20.271  1.00  0.00     0.211 HD
ENDBRANCH  12  34
ENDBRANCH   7   8
ENDBRANCH   1   7
BRANCH   2  36
ATOM     36  O   UNL     1     -30.624 -27.461  18.972  1.00  0.00    -0.387 OA
ATOM     37  H   UNL     1     -29.978 -27.166  19.641  1.00  0.00     0.211 HD
ENDBRANCH   2  36
BRANCH   6  38
ATOM     38  C   UNL     1     -30.372 -28.974  14.213  1.00  0.00     0.191 C 
BRANCH  38  39
ATOM     39  O   UNL     1     -31.535 -29.676  14.669  1.00  0.00    -0.394 OA
ATOM     40  H   UNL     1     -31.294 -30.623  14.656  1.00  0.00     0.210 HD
ENDBRANCH  38  39
ENDBRANCH   6  38
BRANCH   3  41
ATOM     41  O   UNL     1     -30.468 -24.851  18.096  1.00  0.00    -0.385 OA
ATOM     42  H   UNL     1     -30.254 -24.050  17.589  1.00  0.00     0.211 HD
ENDBRANCH   3  41
BRANCH   4  43
ATOM     43  O   UNL     1     -29.026 -25.114  15.597  1.00  0.00    -0.341 OA
BRANCH  43  44
ATOM     44  C   UNL     1     -28.885 -23.914  14.796  1.00  0.00     0.184 C 
BRANCH  44  45
ATOM     45  C   UNL     1     -27.832 -23.967  13.650  1.00  0.00     0.182 C 
BRANCH  45  46
ATOM     46  O   UNL     1     -26.912 -22.851  13.722  1.00  0.00    -0.387 OA
ATOM     47  H   UNL     1     -27.251 -22.205  14.374  1.00  0.00     0.211 HD
ENDBRANCH  45  46
BRANCH  45  48
ATOM     48  C   UNL     1     -27.050 -25.271  13.435  1.00  0.00     0.209 C 
BRANCH  48  49
ATOM     49  O   UNL     1     -27.765 -26.064  12.468  1.00  0.00    -0.383 OA
ATOM     50  H   UNL     1     -28.524 -25.524  12.169  1.00  0.00     0.211 HD
ENDBRANCH  48  49
BRANCH  48  51
ATOM     51  C   UNL     1     -25.658 -25.021  12.890  1.00  0.00     0.258 C 
ATOM     52  O   UNL     1     -25.058 -25.850  12.200  1.00  0.00    -0.300 OA
ENDBRANCH  48  51
ENDBRANCH  45  48
ENDBRANCH  44  45
BRANCH  44  53
ATOM     53  C   UNL     1     -30.304 -23.558  14.268  1.00  0.00     0.171 C 
BRANCH  53  54
ATOM     54  C   UNL     1     -30.702 -22.123  14.651  1.00  0.00     0.190 C 
BRANCH  54  55
ATOM     55  O   UNL     1     -29.579 -21.271  14.407  1.00  0.00    -0.394 OA
ATOM     56  H   UNL     1     -29.889 -20.347  14.417  1.00  0.00     0.210 HD
ENDBRANCH  54  55
ENDBRANCH  53  54
BRANCH  53  57
ATOM     57  O   UNL     1     -30.371 -23.661  12.841  1.00  0.00    -0.388 OA
ATOM     58  H   UNL     1     -29.446 -23.810  12.546  1.00  0.00     0.211 HD
ENDBRANCH  53  57
ENDBRANCH  44  53
ENDBRANCH  43  44
ENDBRANCH   4  43
TORSDOF 26
ENDMDL
MODEL 2
REMARK VINA RESULT:      -6.3      1.919      2.559
REMARK SMILES C[C@H]1O[C@H](O[C@H]2[C@H](O)[C@@H](O)[C@@H](O[C@@H]([C@@H](O)[C@@H](O)C=O)[C@H](O)CO)O[C@@H]2CO)[C@H](O)[C@@H](O)[C@@H]1N[C@H]1C=C(CO)[C@@H](O)[C@H](O)[C@H]1O
REMARK SMILES IDX 6 1 7 2 9 3 11 4 24 5 25 6 5 7 4 8 32 9 30 10 2 11 28 12
REMARK SMILES IDX 3 13 1 14 33 15 34 17 35 18 43 19 36 20 41 21 39 22 44 23
REMARK SMILES IDX 37 25 38 26 42 28 40 30 31 32 29 34 8 36 26 38 27 39 10 41
REMARK SMILES IDX 12 43 13 44 14 45 15 46 16 48 17 49 18 51 19 52 20 53 22 54
REMARK SMILES IDX 23 55 21 57
REMARK H PARENT 33 16 44 24 38 27 42 29 40 31 31 33 29 35 8 37 27 40 10 42
REMARK H PARENT 15 47 17 50 23 56 21 58
REMARK Flexibility Score: inf
ROOT
ATOM      1  C   UNL     1     -30.414 -28.337  17.103  1.00  0.00     0.184 C 
ATOM      2  C   UNL     1     -30.399 -27.329  18.274  1.00  0.00     0.180 C 
ATOM      3  C   UNL     1     -31.493 -26.282  18.111  1.00  0.00     0.202 C 
ATOM      4  C   UNL     1     -31.444 -25.610  16.730  1.00  0.00     0.282 C 
ATOM      5  O   UNL     1     -31.463 -26.592  15.701  1.00  0.00    -0.341 OA
ATOM      6  C   UNL     1     -30.400 -27.556  15.772  1.00  0.00     0.178 C 
ENDROOT
BRANCH   1   7
ATOM      7  O   UNL     1     -29.288 -29.239  17.123  1.00  0.00    -0.341 OA
BRANCH   7   8
ATOM      8  C   UNL     1     -29.666 -30.619  17.048  1.00  0.00     0.282 C 
ATOM      9  C   UNL     1     -27.060 -31.968  17.066  1.00  0.00     0.115 C 
ATOM     10  C   UNL     1     -27.713 -31.429  18.376  1.00  0.00     0.167 C 
ATOM     11  C   UNL     1     -27.736 -31.337  15.804  1.00  0.00     0.138 C 
ATOM     12  C   UNL     1     -29.233 -31.410  18.275  1.00  0.00     0.201 C 
ATOM     13  O   UNL     1     -29.162 -31.262  15.888  1.00  0.00    -0.345 OA
ATOM     14  C   UNL     1     -27.493 -32.178  14.546  1.00  0.00     0.040 C 
BRANCH   9  15
ATOM     15  N   UNL     1     -25.571 -31.773  17.022  1.00  0.00    -0.300 NA
ATOM     16  H   UNL     1     -25.322 -31.124  16.280  1.00  0.00     0.123 HD
BRANCH  15  17
ATOM     17  C   UNL     1     -24.782 -33.016  16.868  1.00  0.00     0.109 C 
ATOM     18  C   UNL     1     -25.711 -34.181  16.760  1.00  0.00    -0.001 C 
ATOM     19  C   UNL     1     -23.645 -32.981  15.794  1.00  0.00     0.167 C 
ATOM     20  C   UNL     1     -25.758 -35.090  15.772  1.00  0.00    -0.016 C 
ATOM     21  C   UNL     1     -23.778 -33.903  14.562  1.00  0.00     0.177 C 
ATOM     22  C   UNL     1     -24.806 -35.054  14.612  1.00  0.00     0.174 C 
BRANCH  19  23
ATOM     23  O   UNL     1     -23.359 -31.639  15.349  1.00  0.00    -0.388 OA
ATOM     24  H   UNL     1     -24.111 -31.336  14.815  1.00  0.00     0.211 HD
ENDBRANCH  19  23
BRANCH  20  25
ATOM     25  C   UNL     1     -26.749 -36.238  15.745  1.00  0.00     0.189 C 
BRANCH  25  26
ATOM     26  O   UNL     1     -26.096 -37.478  15.464  1.00  0.00    -0.392 OA
ATOM     27  H   UNL     1     -25.142 -37.289  15.413  1.00  0.00     0.211 HD
ENDBRANCH  25  26
ENDBRANCH  20  25
BRANCH  21  28
ATOM     28  O   UNL     1     -22.470 -34.473  14.283  1.00  0.00    -0.387 OA
ATOM     29  H   UNL     1     -22.402 -34.663  13.334  1.00  0.00     0.211 HD
ENDBRANCH  21  28
BRANCH  22  30
ATOM     30  O   UNL     1     -25.598 -35.035  13.419  1.00  0.00    -0.386 OA
ATOM     31  H   UNL     1     -25.769 -34.107  13.186  1.00  0.00     0.211 HD
ENDBRANCH  22  30
ENDBRANCH  15  17
ENDBRANCH   9  15
BRANCH  10  32
ATOM     32  O   UNL     1     -27.407 -32.246  19.529  1.00  0.00    -0.388 OA
ATOM     33  H   UNL     1     -27.719 -31.778  20.324  1.00  0.00     0.211 HD
ENDBRANCH  10  32
BRANCH  12  34
ATOM     34  O   UNL     1     -29.841 -30.908  19.474  1.00  0.00    -0.385 OA
ATOM     35  H   UNL     1     -30.389 -30.144  19.220  1.00  0.00     0.211 HD
ENDBRANCH  12  34
ENDBRANCH   7   8
ENDBRANCH   1   7
BRANCH   2  36
ATOM     36  O   UNL     1     -30.652 -27.981  19.532  1.00  0.00    -0.387 OA
ATOM     37  H   UNL     1     -29.794 -28.205  19.939  1.00  0.00     0.211 HD
ENDBRANCH   2  36
BRANCH   6  38
ATOM     38  C   UNL     1     -30.600 -28.474  14.557  1.00  0.00     0.191 C 
BRANCH  38  39
ATOM     39  O   UNL     1     -29.320 -28.864  14.046  1.00  0.00    -0.394 OA
ATOM     40  H   UNL     1     -29.442 -28.977  13.083  1.00  0.00     0.210 HD
ENDBRANCH  38  39
ENDBRANCH   6  38
BRANCH   3  41
ATOM     41  O   UNL     1     -31.444 -25.359  19.212  1.00  0.00    -0.385 OA
ATOM     42  H   UNL     1     -30.788 -25.676  19.856  1.00  0.00     0.211 HD
ENDBRANCH   3  41
BRANCH   4  43
ATOM     43  O   UNL     1     -30.352 -24.688  16.614  1.00  0.00    -0.341 OA
BRANCH  43  44
ATOM     44  C   UNL     1     -30.680 -23.434  15.963  1.00  0.00     0.184 C 
BRANCH  44  45
ATOM     45  C   UNL     1     -30.116 -23.233  14.525  1.00  0.00     0.182 C 
BRANCH  45  46
ATOM     46  O   UNL     1     -29.711 -21.861  14.302  1.00  0.00    -0.387 OA
ATOM     47  H   UNL     1     -29.584 -21.425  15.168  1.00  0.00     0.211 HD
ENDBRANCH  45  46
BRANCH  45  48
ATOM     48  C   UNL     1     -29.020 -24.187  14.029  1.00  0.00     0.209 C 
BRANCH  48  49
ATOM     49  O   UNL     1     -29.144 -24.301  12.599  1.00  0.00    -0.383 OA
ATOM     50  H   UNL     1     -28.245 -24.475  12.253  1.00  0.00     0.211 HD
ENDBRANCH  48  49
BRANCH  48  51
ATOM     51  C   UNL     1     -27.629 -23.668  14.333  1.00  0.00     0.258 C 
ATOM     52  O   UNL     1     -26.680 -23.826  13.561  1.00  0.00    -0.300 OA
ENDBRANCH  48  51
ENDBRANCH  45  48
ENDBRANCH  44  45
BRANCH  44  53
ATOM     53  C   UNL     1     -32.229 -23.299  16.007  1.00  0.00     0.171 C 
BRANCH  53  54
ATOM     54  C   UNL     1     -32.688 -22.500  17.238  1.00  0.00     0.190 C 
BRANCH  54  55
ATOM     55  O   UNL     1     -31.605 -22.464  18.173  1.00  0.00    -0.394 OA
ATOM     56  H   UNL     1     -31.962 -22.206  19.043  1.00  0.00     0.210 HD
ENDBRANCH  54  55
ENDBRANCH  53  54
BRANCH  53  57
ATOM     57  O   UNL     1     -32.727 -22.628  14.845  1.00  0.00    -0.388 OA
ATOM     58  H   UNL     1     -31.955 -22.153  14.466  1.00  0.00     0.211 HD
ENDBRANCH  53  57
ENDBRANCH  44  53
ENDBRANCH  43  44
ENDBRANCH   4  43
TORSDOF 26
ENDMDL
MODEL 3
REMARK VINA RESULT:      -6.2      1.544      2.809
REMARK SMILES C[C@H]1O[C@H](O[C@H]2[C@H](O)[C@@H](O)[C@@H](O[C@@H]([C@@H](O)[C@@H](O)C=O)[C@H](O)CO)O[C@@H]2CO)[C@H](O)[C@@H](O)[C@@H]1N[C@H]1C=C(CO)[C@@H](O)[C@H](O)[C@H]1O
REMARK SMILES IDX 6 1 7 2 9 3 11 4 24 5 25 6 5 7 4 8 32 9 30 10 2 11 28 12
REMARK SMILES IDX 3 13 1 14 33 15 34 17 35 18 43 19 36 20 41 21 39 22 44 23
REMARK SMILES IDX 37 25 38 26 42 28 40 30 31 32 29 34 8 36 26 38 27 39 10 41
REMARK SMILES IDX 12 43 13 44 14 45 15 46 16 48 17 49 18 51 19 52 20 53 22 54
REMARK SMILES IDX 23 55 21 57
REMARK H PARENT 33 16 44 24 38 27 42 29 40 31 31 33 29 35 8 37 27 40 10 42
REMARK H PARENT 15 47 17 50 23 56 21 58
REMARK Flexibility Score: inf
ROOT
ATOM      1  C   UNL     1     -29.973 -29.821  17.044  1.00  0.00     0.184 C 
ATOM      2  C   UNL     1     -29.782 -28.594  17.964  1.00  0.00     0.180 C 
ATOM      3  C   UNL     1     -30.716 -27.458  17.566  1.00  0.00     0.202 C 
ATOM      4  C   UNL     1     -30.606 -27.120  16.071  1.00  0.00     0.282 C 
ATOM      5  O   UNL     1     -30.794 -28.291  15.284  1.00  0.00    -0.341 OA
ATOM      6  C   UNL     1     -29.881 -29.362  15.573  1.00  0.00     0.178 C 
ENDROOT
BRANCH   1   7
ATOM      7  O   UNL     1     -28.990 -30.852  17.271  1.00  0.00    -0.341 OA
BRANCH   7   8
ATOM      8  C   UNL     1     -29.526 -32.014  17.916  1.00  0.00     0.282 C 
ATOM      9  C   UNL     1     -27.436 -34.011  17.412  1.00  0.00     0.115 C 
ATOM     10  C   UNL     1     -27.292 -32.941  18.536  1.00  0.00     0.167 C 
ATOM     11  C   UNL     1     -28.557 -33.609  16.397  1.00  0.00     0.138 C 
ATOM     12  C   UNL     1     -28.652 -32.499  19.064  1.00  0.00     0.201 C 
ATOM     13  O   UNL     1     -29.738 -33.090  17.016  1.00  0.00    -0.345 OA
ATOM     14  C   UNL     1     -29.067 -34.815  15.602  1.00  0.00     0.040 C 
BRANCH   9  15
ATOM     15  N   UNL     1     -26.148 -34.292  16.692  1.00  0.00    -0.300 NA
ATOM     16  H   UNL     1     -25.724 -35.146  17.046  1.00  0.00     0.123 HD
BRANCH  15  17
ATOM     17  C   UNL     1     -25.153 -33.198  16.739  1.00  0.00     0.109 C 
ATOM     18  C   UNL     1     -23.885 -33.709  17.343  1.00  0.00    -0.001 C 
ATOM     19  C   UNL     1     -24.968 -32.377  15.421  1.00  0.00     0.167 C 
ATOM     20  C   UNL     1     -22.656 -33.666  16.802  1.00  0.00    -0.016 C 
ATOM     21  C   UNL     1     -23.606 -32.458  14.696  1.00  0.00     0.177 C 
ATOM     22  C   UNL     1     -22.397 -33.034  15.465  1.00  0.00     0.174 C 
BRANCH  19  23
ATOM     23  O   UNL     1     -26.023 -32.630  14.470  1.00  0.00    -0.388 OA
ATOM     24  H   UNL     1     -26.593 -31.845  14.444  1.00  0.00     0.211 HD
ENDBRANCH  19  23
BRANCH  20  25
ATOM     25  C   UNL     1     -21.425 -34.224  17.490  1.00  0.00     0.189 C 
BRANCH  25  26
ATOM     26  O   UNL     1     -21.783 -35.031  18.614  1.00  0.00    -0.392 OA
ATOM     27  H   UNL     1     -22.756 -35.057  18.644  1.00  0.00     0.211 HD
ENDBRANCH  25  26
ENDBRANCH  20  25
BRANCH  21  28
ATOM     28  O   UNL     1     -23.260 -31.124  14.236  1.00  0.00    -0.387 OA
ATOM     29  H   UNL     1     -23.991 -30.773  13.703  1.00  0.00     0.211 HD
ENDBRANCH  21  28
BRANCH  22  30
ATOM     30  O   UNL     1     -21.744 -34.018  14.655  1.00  0.00    -0.386 OA
ATOM     31  H   UNL     1     -21.729 -34.853  15.151  1.00  0.00     0.211 HD
ENDBRANCH  22  30
ENDBRANCH  15  17
ENDBRANCH   9  15
BRANCH  10  32
ATOM     32  O   UNL     1     -26.568 -33.434  19.686  1.00  0.00    -0.388 OA
ATOM     33  H   UNL     1     -25.934 -32.748  19.963  1.00  0.00     0.211 HD
ENDBRANCH  10  32
BRANCH  12  34
ATOM     34  O   UNL     1     -28.528 -31.509  20.095  1.00  0.00    -0.385 OA
ATOM     35  H   UNL     1     -27.585 -31.466  20.339  1.00  0.00     0.211 HD
ENDBRANCH  12  34
ENDBRANCH   7   8
ENDBRANCH   1   7
BRANCH   2  36
ATOM     36  O   UNL     1     -30.094 -28.910  19.333  1.00  0.00    -0.387 OA
ATOM     37  H   UNL     1     -30.842 -29.535  19.341  1.00  0.00     0.211 HD
ENDBRANCH   2  36
BRANCH   6  38
ATOM     38  C   UNL     1     -30.243 -30.484  14.590  1.00  0.00     0.191 C 
BRANCH  38  39
ATOM     39  O   UNL     1     -30.341 -29.939  13.269  1.00  0.00    -0.394 OA
ATOM     40  H   UNL     1     -29.428 -29.702  13.012  1.00  0.00     0.210 HD
ENDBRANCH  38  39
ENDBRANCH   6  38
BRANCH   3  41
ATOM     41  O   UNL     1     -30.505 -26.334  18.436  1.00  0.00    -0.385 OA
ATOM     42  H   UNL     1     -31.366 -25.937  18.649  1.00  0.00     0.211 HD
ENDBRANCH   3  41
BRANCH   4  43
ATOM     43  O   UNL     1     -29.395 -26.418  15.762  1.00  0.00    -0.341 OA
BRANCH  43  44
ATOM     44  C   UNL     1     -29.573 -25.223  14.960  1.00  0.00     0.184 C 
BRANCH  44  45
ATOM     45  C   UNL     1     -29.689 -23.879  15.739  1.00  0.00     0.182 C 
BRANCH  45  46
ATOM     46  O   UNL     1     -28.548 -23.022  15.491  1.00  0.00    -0.387 OA
ATOM     47  H   UNL     1     -27.729 -23.535  15.647  1.00  0.00     0.211 HD
ENDBRANCH  45  46
BRANCH  45  48
ATOM     48  C   UNL     1     -30.986 -23.068  15.609  1.00  0.00     0.209 C 
BRANCH  48  49
ATOM     49  O   UNL     1     -30.675 -21.835  14.932  1.00  0.00    -0.383 OA
ATOM     50  H   UNL     1     -29.852 -21.994  14.426  1.00  0.00     0.211 HD
ENDBRANCH  48  49
BRANCH  48  51
ATOM     51  C   UNL     1     -32.035 -23.793  14.790  1.00  0.00     0.258 C 
ATOM     52  O   UNL     1     -33.242 -23.704  15.031  1.00  0.00    -0.300 OA
ENDBRANCH  48  51
ENDBRANCH  45  48
ENDBRANCH  44  45
BRANCH  44  53
ATOM     53  C   UNL     1     -28.410 -25.200  13.927  1.00  0.00     0.171 C 
BRANCH  53  54
ATOM     54  C   UNL     1     -28.148 -26.599  13.346  1.00  0.00     0.190 C 
BRANCH  54  55
ATOM     55  O   UNL     1     -29.389 -27.118  12.860  1.00  0.00    -0.394 OA
ATOM     56  H   UNL     1     -29.756 -27.716  13.538  1.00  0.00     0.210 HD
ENDBRANCH  54  55
ENDBRANCH  53  54
BRANCH  53  57
ATOM     57  O   UNL     1     -28.703 -24.325  12.832  1.00  0.00    -0.388 OA
ATOM     58  H   UNL     1     -28.730 -24.901  12.036  1.00  0.00     0.211 HD
ENDBRANCH  53  57
ENDBRANCH  44  53
ENDBRANCH  43  44
ENDBRANCH   4  43
TORSDOF 26
ENDMDL
MODEL 4
REMARK VINA RESULT:      -6.1      1.952      3.202
REMARK SMILES C[C@H]1O[C@H](O[C@H]2[C@H](O)[C@@H](O)[C@@H](O[C@@H]([C@@H](O)[C@@H](O)C=O)[C@H](O)CO)O[C@@H]2CO)[C@H](O)[C@@H](O)[C@@H]1N[C@H]1C=C(CO)[C@@H](O)[C@H](O)[C@H]1O
REMARK SMILES IDX 6 1 7 2 9 3 11 4 24 5 25 6 5 7 4 8 32 9 30 10 2 11 28 12
REMARK SMILES IDX 3 13 1 14 33 15 34 17 35 18 43 19 36 20 41 21 39 22 44 23
REMARK SMILES IDX 37 25 38 26 42 28 40 30 31 32 29 34 8 36 26 38 27 39 10 41
REMARK SMILES IDX 12 43 13 44 14 45 15 46 16 48 17 49 18 51 19 52 20 53 22 54
REMARK SMILES IDX 23 55 21 57
REMARK H PARENT 33 16 44 24 38 27 42 29 40 31 31 33 29 35 8 37 27 40 10 42
REMARK H PARENT 15 47 17 50 23 56 21 58
REMARK Flexibility Score: inf
ROOT
ATOM      1  C   UNL     1     -29.958 -30.024  16.983  1.00  0.00     0.184 C 
ATOM      2  C   UNL     1     -29.715 -28.747  17.818  1.00  0.00     0.180 C 
ATOM      3  C   UNL     1     -30.591 -27.599  17.335  1.00  0.00     0.202 C 
ATOM      4  C   UNL     1     -30.455 -27.370  15.821  1.00  0.00     0.282 C 
ATOM      5  O   UNL     1     -30.694 -28.582  15.115  1.00  0.00    -0.341 OA
ATOM      6  C   UNL     1     -29.835 -29.673  15.485  1.00  0.00     0.178 C 
ENDROOT
BRANCH   1   7
ATOM      7  O   UNL     1     -29.027 -31.083  17.290  1.00  0.00    -0.341 OA
BRANCH   7   8
ATOM      8  C   UNL     1     -29.572 -32.082  18.161  1.00  0.00     0.282 C 
ATOM      9  C   UNL     1     -27.761 -34.345  17.701  1.00  0.00     0.115 C 
ATOM     10  C   UNL     1     -27.367 -33.155  18.629  1.00  0.00     0.167 C 
ATOM     11  C   UNL     1     -28.971 -33.962  16.785  1.00  0.00     0.138 C 
ATOM     12  C   UNL     1     -28.595 -32.501  19.250  1.00  0.00     0.201 C 
ATOM     13  O   UNL     1     -30.003 -33.239  17.463  1.00  0.00    -0.345 OA
ATOM     14  C   UNL     1     -29.693 -35.202  16.247  1.00  0.00     0.040 C 
BRANCH   9  15
ATOM     15  N   UNL     1     -26.616 -34.859  16.876  1.00  0.00    -0.300 NA
ATOM     16  H   UNL     1     -25.748 -34.804  17.404  1.00  0.00     0.123 HD
BRANCH  15  17
ATOM     17  C   UNL     1     -26.435 -34.189  15.569  1.00  0.00     0.109 C 
ATOM     18  C   UNL     1     -25.304 -33.216  15.665  1.00  0.00    -0.001 C 
ATOM     19  C   UNL     1     -26.394 -35.123  14.316  1.00  0.00     0.167 C 
ATOM     20  C   UNL     1     -24.209 -33.169  14.888  1.00  0.00    -0.016 C 
ATOM     21  C   UNL     1     -25.077 -35.207  13.513  1.00  0.00     0.177 C 
ATOM     22  C   UNL     1     -24.001 -34.124  13.750  1.00  0.00     0.174 C 
BRANCH  19  23
ATOM     23  O   UNL     1     -26.846 -36.459  14.618  1.00  0.00    -0.388 OA
ATOM     24  H   UNL     1     -26.472 -37.056  13.951  1.00  0.00     0.211 HD
ENDBRANCH  19  23
BRANCH  20  25
ATOM     25  C   UNL     1     -23.105 -32.146  15.070  1.00  0.00     0.189 C 
BRANCH  25  26
ATOM     26  O   UNL     1     -23.519 -30.854  14.622  1.00  0.00    -0.392 OA
ATOM     27  H   UNL     1     -23.261 -30.219  15.314  1.00  0.00     0.211 HD
ENDBRANCH  25  26
ENDBRANCH  20  25
BRANCH  21  28
ATOM     28  O   UNL     1     -25.411 -35.214  12.099  1.00  0.00    -0.387 OA
ATOM     29  H   UNL     1     -26.138 -35.839  11.948  1.00  0.00     0.211 HD
ENDBRANCH  21  28
BRANCH  22  30
ATOM     30  O   UNL     1     -22.731 -34.755  13.957  1.00  0.00    -0.386 OA
ATOM     31  H   UNL     1     -22.044 -34.176  13.586  1.00  0.00     0.211 HD
ENDBRANCH  22  30
ENDBRANCH  15  17
ENDBRANCH   9  15
BRANCH  10  32
ATOM     32  O   UNL     1     -26.538 -33.565  19.740  1.00  0.00    -0.388 OA
ATOM     33  H   UNL     1     -25.849 -34.164  19.400  1.00  0.00     0.211 HD
ENDBRANCH  10  32
BRANCH  12  34
ATOM     34  O   UNL     1     -28.240 -31.400  20.100  1.00  0.00    -0.385 OA
ATOM     35  H   UNL     1     -28.790 -31.468  20.902  1.00  0.00     0.211 HD
ENDBRANCH  12  34
ENDBRANCH   7   8
ENDBRANCH   1   7
BRANCH   2  36
ATOM     36  O   UNL     1     -30.050 -28.952  19.203  1.00  0.00    -0.387 OA
ATOM     37  H   UNL     1     -29.506 -28.349  19.743  1.00  0.00     0.211 HD
ENDBRANCH   2  36
BRANCH   6  38
ATOM     38  C   UNL     1     -30.245 -30.842  14.578  1.00  0.00     0.191 C 
BRANCH  38  39
ATOM     39  O   UNL     1     -31.224 -31.640  15.253  1.00  0.00    -0.394 OA
ATOM     40  H   UNL     1     -31.146 -32.536  14.869  1.00  0.00     0.210 HD
ENDBRANCH  38  39
ENDBRANCH   6  38
BRANCH   3  41
ATOM     41  O   UNL     1     -30.332 -26.429  18.127  1.00  0.00    -0.385 OA
ATOM     42  H   UNL     1     -30.774 -26.529  18.987  1.00  0.00     0.211 HD
ENDBRANCH   3  41
BRANCH   4  43
ATOM     43  O   UNL     1     -29.210 -26.749  15.476  1.00  0.00    -0.341 OA
BRANCH  43  44
ATOM     44  C   UNL     1     -29.187 -26.117  14.171  1.00  0.00     0.184 C 
BRANCH  44  45
ATOM     45  C   UNL     1     -28.900 -24.586  14.149  1.00  0.00     0.182 C 
BRANCH  45  46
ATOM     46  O   UNL     1     -28.964 -24.053  12.804  1.00  0.00    -0.387 OA
ATOM     47  H   UNL     1     -28.055 -23.974  12.453  1.00  0.00     0.211 HD
ENDBRANCH  45  46
BRANCH  45  48
ATOM     48  C   UNL     1     -29.689 -23.680  15.106  1.00  0.00     0.209 C 
BRANCH  48  49
ATOM     49  O   UNL     1     -29.231 -23.942  16.446  1.00  0.00    -0.383 OA
ATOM     50  H   UNL     1     -29.972 -24.375  16.916  1.00  0.00     0.211 HD
ENDBRANCH  48  49
BRANCH  48  51
ATOM     51  C   UNL     1     -29.463 -22.210  14.818  1.00  0.00     0.258 C 
ATOM     52  O   UNL     1     -28.344 -21.691  14.857  1.00  0.00    -0.300 OA
ENDBRANCH  48  51
ENDBRANCH  45  48
ENDBRANCH  44  45
BRANCH  44  53
ATOM     53  C   UNL     1     -28.169 -26.914  13.305  1.00  0.00     0.171 C 
BRANCH  53  54
ATOM     54  C   UNL     1     -28.792 -27.353  11.970  1.00  0.00     0.190 C 
BRANCH  54  55
ATOM     55  O   UNL     1     -29.948 -28.145  12.258  1.00  0.00    -0.394 OA
ATOM     56  H   UNL     1     -30.642 -27.918  11.611  1.00  0.00     0.210 HD
ENDBRANCH  54  55
ENDBRANCH  53  54
BRANCH  53  57
ATOM     57  O   UNL     1     -27.011 -26.127  13.005  1.00  0.00    -0.388 OA
ATOM     58  H   UNL     1     -26.248 -26.646  13.339  1.00  0.00     0.211 HD
ENDBRANCH  53  57
ENDBRANCH  44  53
ENDBRANCH  43  44
ENDBRANCH   4  43
TORSDOF 26
ENDMDL
MODEL 5
REMARK VINA RESULT:      -6.0      1.960      3.876
REMARK SMILES C[C@H]1O[C@H](O[C@H]2[C@H](O)[C@@H](O)[C@@H](O[C@@H]([C@@H](O)[C@@H](O)C=O)[C@H](O)CO)O[C@@H]2CO)[C@H](O)[C@@H](O)[C@@H]1N[C@H]1C=C(CO)[C@@H](O)[C@H](O)[C@H]1O
REMARK SMILES IDX 6 1 7 2 9 3 11 4 24 5 25 6 5 7 4 8 32 9 30 10 2 11 28 12
REMARK SMILES IDX 3 13 1 14 33 15 34 17 35 18 43 19 36 20 41 21 39 22 44 23
REMARK SMILES IDX 37 25 38 26 42 28 40 30 31 32 29 34 8 36 26 38 27 39 10 41
REMARK SMILES IDX 12 43 13 44 14 45 15 46 16 48 17 49 18 51 19 52 20 53 22 54
REMARK SMILES IDX 23 55 21 57
REMARK H PARENT 33 16 44 24 38 27 42 29 40 31 31 33 29 35 8 37 27 40 10 42
REMARK H PARENT 15 47 17 50 23 56 21 58
REMARK Flexibility Score: inf
ROOT
ATOM      1  C   UNL     1     -29.981 -29.642  17.275  1.00  0.00     0.184 C 
ATOM      2  C   UNL     1     -29.961 -28.668  18.474  1.00  0.00     0.180 C 
ATOM      3  C   UNL     1     -31.156 -27.723  18.435  1.00  0.00     0.202 C 
ATOM      4  C   UNL     1     -31.283 -27.014  17.077  1.00  0.00     0.282 C 
ATOM      5  O   UNL     1     -31.298 -27.967  16.021  1.00  0.00    -0.341 OA
ATOM      6  C   UNL     1     -30.149 -28.829  15.974  1.00  0.00     0.178 C 
ENDROOT
BRANCH   1   7
ATOM      7  O   UNL     1     -28.781 -30.435  17.175  1.00  0.00    -0.341 OA
BRANCH   7   8
ATOM      8  C   UNL     1     -29.029 -31.846  17.205  1.00  0.00     0.282 C 
ATOM      9  C   UNL     1     -26.322 -32.949  16.938  1.00  0.00     0.115 C 
ATOM     10  C   UNL     1     -26.855 -32.404  18.299  1.00  0.00     0.167 C 
ATOM     11  C   UNL     1     -27.209 -32.448  15.750  1.00  0.00     0.138 C 
ATOM     12  C   UNL     1     -28.371 -32.529  18.395  1.00  0.00     0.201 C 
ATOM     13  O   UNL     1     -28.615 -32.500  16.016  1.00  0.00    -0.345 OA
ATOM     14  C   UNL     1     -27.046 -33.327  14.506  1.00  0.00     0.040 C 
BRANCH   9  15
ATOM     15  N   UNL     1     -24.877 -32.621  16.693  1.00  0.00    -0.300 NA
ATOM     16  H   UNL     1     -24.785 -32.013  15.883  1.00  0.00     0.123 HD
BRANCH  15  17
ATOM     17  C   UNL     1     -23.990 -33.794  16.526  1.00  0.00     0.109 C 
ATOM     18  C   UNL     1     -23.364 -33.749  15.169  1.00  0.00    -0.001 C 
ATOM     19  C   UNL     1     -22.995 -34.078  17.698  1.00  0.00     0.167 C 
ATOM     20  C   UNL     1     -22.052 -33.777  14.882  1.00  0.00    -0.016 C 
ATOM     21  C   UNL     1     -21.482 -33.942  17.420  1.00  0.00     0.177 C 
ATOM     22  C   UNL     1     -21.006 -33.893  15.952  1.00  0.00     0.174 C 
BRANCH  19  23
ATOM     23  O   UNL     1     -23.324 -33.326  18.885  1.00  0.00    -0.388 OA
ATOM     24  H   UNL     1     -22.627 -32.665  19.020  1.00  0.00     0.211 HD
ENDBRANCH  19  23
BRANCH  20  25
ATOM     25  C   UNL     1     -21.510 -33.716  13.467  1.00  0.00     0.189 C 
BRANCH  25  26
ATOM     26  O   UNL     1     -21.183 -32.374  13.097  1.00  0.00    -0.392 OA
ATOM     27  H   UNL     1     -21.679 -31.788  13.694  1.00  0.00     0.211 HD
ENDBRANCH  25  26
ENDBRANCH  20  25
BRANCH  21  28
ATOM     28  O   UNL     1     -20.802 -35.043  18.082  1.00  0.00    -0.387 OA
ATOM     29  H   UNL     1     -21.264 -35.250  18.910  1.00  0.00     0.211 HD
ENDBRANCH  21  28
BRANCH  22  30
ATOM     30  O   UNL     1     -20.107 -32.791  15.781  1.00  0.00    -0.386 OA
ATOM     31  H   UNL     1     -20.631 -32.011  15.534  1.00  0.00     0.211 HD
ENDBRANCH  22  30
ENDBRANCH  15  17
ENDBRANCH   9  15
BRANCH  10  32
ATOM     32  O   UNL     1     -26.330 -33.129  19.434  1.00  0.00    -0.388 OA
ATOM     33  H   UNL     1     -25.471 -33.512  19.179  1.00  0.00     0.211 HD
ENDBRANCH  10  32
BRANCH  12  34
ATOM     34  O   UNL     1     -28.869 -32.023  19.643  1.00  0.00    -0.385 OA
ATOM     35  H   UNL     1     -28.998 -31.064  19.532  1.00  0.00     0.211 HD
ENDBRANCH  12  34
ENDBRANCH   7   8
ENDBRANCH   1   7
BRANCH   2  36
ATOM     36  O   UNL     1     -30.048 -29.372  19.726  1.00  0.00    -0.387 OA
ATOM     37  H   UNL     1     -30.884 -29.875  19.738  1.00  0.00     0.211 HD
ENDBRANCH   2  36
BRANCH   6  38
ATOM     38  C   UNL     1     -30.365 -29.730  14.749  1.00  0.00     0.191 C 
BRANCH  38  39
ATOM     39  O   UNL     1     -31.177 -30.849  15.126  1.00  0.00    -0.394 OA
ATOM     40  H   UNL     1     -30.657 -31.643  14.895  1.00  0.00     0.210 HD
ENDBRANCH  38  39
ENDBRANCH   6  38
BRANCH   3  41
ATOM     41  O   UNL     1     -31.099 -26.828  19.558  1.00  0.00    -0.385 OA
ATOM     42  H   UNL     1     -30.348 -27.080  20.121  1.00  0.00     0.211 HD
ENDBRANCH   3  41
BRANCH   4  43
ATOM     43  O   UNL     1     -30.292 -25.992  16.904  1.00  0.00    -0.341 OA
BRANCH  43  44
ATOM     44  C   UNL     1     -30.782 -24.765  16.306  1.00  0.00     0.184 C 
BRANCH  44  45
ATOM     45  C   UNL     1     -30.621 -23.469  17.156  1.00  0.00     0.182 C 
BRANCH  45  46
ATOM     46  O   UNL     1     -29.855 -22.464  16.450  1.00  0.00    -0.387 OA
ATOM     47  H   UNL     1     -29.776 -22.729  15.512  1.00  0.00     0.211 HD
ENDBRANCH  45  46
BRANCH  45  48
ATOM     48  C   UNL     1     -31.878 -22.832  17.765  1.00  0.00     0.209 C 
BRANCH  48  49
ATOM     49  O   UNL     1     -32.627 -22.218  16.699  1.00  0.00    -0.383 OA
ATOM     50  H   UNL     1     -32.101 -21.452  16.393  1.00  0.00     0.211 HD
ENDBRANCH  48  49
BRANCH  48  51
ATOM     51  C   UNL     1     -32.775 -23.858  18.429  1.00  0.00     0.258 C 
ATOM     52  O   UNL     1     -32.517 -24.350  19.531  1.00  0.00    -0.300 OA
ENDBRANCH  48  51
ENDBRANCH  45  48
ENDBRANCH  44  45
BRANCH  44  53
ATOM     53  C   UNL     1     -30.097 -24.640  14.915  1.00  0.00     0.171 C 
BRANCH  53  54
ATOM     54  C   UNL     1     -28.830 -25.507  14.834  1.00  0.00     0.190 C 
BRANCH  54  55
ATOM     55  O   UNL     1     -27.942 -24.909  13.885  1.00  0.00    -0.394 OA
ATOM     56  H   UNL     1     -27.078 -24.777  14.316  1.00  0.00     0.210 HD
ENDBRANCH  54  55
ENDBRANCH  53  54
BRANCH  53  57
ATOM     57  O   UNL     1     -30.975 -25.055  13.863  1.00  0.00    -0.388 OA
ATOM     58  H   UNL     1     -31.879 -24.829  14.171  1.00  0.00     0.211 HD
ENDBRANCH  53  57
ENDBRANCH  44  53
ENDBRANCH  43  44
ENDBRANCH   4  43
TORSDOF 26
ENDMDL
MODEL 6
REMARK VINA RESULT:      -6.0      4.440      8.706
REMARK SMILES C[C@H]1O[C@H](O[C@H]2[C@H](O)[C@@H](O)[C@@H](O[C@@H]([C@@H](O)[C@@H](O)C=O)[C@H](O)CO)O[C@@H]2CO)[C@H](O)[C@@H](O)[C@@H]1N[C@H]1C=C(CO)[C@@H](O)[C@H](O)[C@H]1O
REMARK SMILES IDX 6 1 7 2 9 3 11 4 24 5 25 6 5 7 4 8 32 9 30 10 2 11 28 12
REMARK SMILES IDX 3 13 1 14 33 15 34 17 35 18 43 19 36 20 41 21 39 22 44 23
REMARK SMILES IDX 37 25 38 26 42 28 40 30 31 32 29 34 8 36 26 38 27 39 10 41
REMARK SMILES IDX 12 43 13 44 14 45 15 46 16 48 17 49 18 51 19 52 20 53 22 54
REMARK SMILES IDX 23 55 21 57
REMARK H PARENT 33 16 44 24 38 27 42 29 40 31 31 33 29 35 8 37 27 40 10 42
REMARK H PARENT 15 47 17 50 23 56 21 58
REMARK Flexibility Score: inf
ROOT
ATOM      1  C   UNL     1     -31.077 -32.649  16.778  1.00  0.00     0.184 C 
ATOM      2  C   UNL     1     -31.095 -34.156  17.121  1.00  0.00     0.180 C 
ATOM      3  C   UNL     1     -32.476 -34.755  16.887  1.00  0.00     0.202 C 
ATOM      4  C   UNL     1     -33.578 -33.955  17.601  1.00  0.00     0.282 C 
ATOM      5  O   UNL     1     -33.504 -32.581  17.240  1.00  0.00    -0.341 OA
ATOM      6  C   UNL     1     -32.241 -31.954  17.515  1.00  0.00     0.178 C 
ENDROOT
BRANCH   1   7
ATOM      7  O   UNL     1     -29.841 -32.004  17.149  1.00  0.00    -0.341 OA
BRANCH   7   8
ATOM      8  C   UNL     1     -29.324 -32.451  18.409  1.00  0.00     0.282 C 
ATOM      9  C   UNL     1     -26.448 -31.951  18.101  1.00  0.00     0.115 C 
ATOM     10  C   UNL     1     -27.447 -30.804  18.445  1.00  0.00     0.167 C 
ATOM     11  C   UNL     1     -27.206 -33.206  17.552  1.00  0.00     0.138 C 
ATOM     12  C   UNL     1     -28.663 -31.330  19.199  1.00  0.00     0.201 C 
ATOM     13  O   UNL     1     -28.402 -33.520  18.273  1.00  0.00    -0.345 OA
ATOM     14  C   UNL     1     -26.365 -34.480  17.678  1.00  0.00     0.040 C 
BRANCH   9  15
ATOM     15  N   UNL     1     -25.366 -31.529  17.149  1.00  0.00    -0.300 NA
ATOM     16  H   UNL     1     -25.568 -30.607  16.770  1.00  0.00     0.123 HD
BRANCH  15  17
ATOM     17  C   UNL     1     -25.112 -32.469  16.034  1.00  0.00     0.109 C 
ATOM     18  C   UNL     1     -25.709 -31.919  14.779  1.00  0.00    -0.001 C 
ATOM     19  C   UNL     1     -23.643 -32.986  15.891  1.00  0.00     0.167 C 
ATOM     20  C   UNL     1     -25.078 -31.692  13.615  1.00  0.00    -0.016 C 
ATOM     21  C   UNL     1     -22.848 -32.584  14.629  1.00  0.00     0.177 C 
ATOM     22  C   UNL     1     -23.625 -32.013  13.422  1.00  0.00     0.174 C 
BRANCH  19  23
ATOM     23  O   UNL     1     -22.848 -32.697  17.059  1.00  0.00    -0.388 OA
ATOM     24  H   UNL     1     -22.047 -32.235  16.766  1.00  0.00     0.211 HD
ENDBRANCH  19  23
BRANCH  20  25
ATOM     25  C   UNL     1     -25.770 -31.119  12.393  1.00  0.00     0.189 C 
BRANCH  25  26
ATOM     26  O   UNL     1     -27.091 -30.673  12.709  1.00  0.00    -0.392 OA
ATOM     27  H   UNL     1     -27.698 -31.394  12.464  1.00  0.00     0.211 HD
ENDBRANCH  25  26
ENDBRANCH  20  25
BRANCH  21  28
ATOM     28  O   UNL     1     -22.099 -33.746  14.179  1.00  0.00    -0.387 OA
ATOM     29  H   UNL     1     -22.045 -33.733  13.211  1.00  0.00     0.211 HD
ENDBRANCH  21  28
BRANCH  22  30
ATOM     30  O   UNL     1     -22.986 -30.812  12.973  1.00  0.00    -0.386 OA
ATOM     31  H   UNL     1     -22.026 -30.929  13.068  1.00  0.00     0.211 HD
ENDBRANCH  22  30
ENDBRANCH  15  17
ENDBRANCH   9  15
BRANCH  10  32
ATOM     32  O   UNL     1     -26.864 -29.794  19.300  1.00  0.00    -0.388 OA
ATOM     33  H   UNL     1     -26.014 -29.522  18.911  1.00  0.00     0.211 HD
ENDBRANCH  10  32
BRANCH  12  34
ATOM     34  O   UNL     1     -29.590 -30.281  19.513  1.00  0.00    -0.385 OA
ATOM     35  H   UNL     1     -29.280 -29.861  20.336  1.00  0.00     0.211 HD
ENDBRANCH  12  34
ENDBRANCH   7   8
ENDBRANCH   1   7
BRANCH   2  36
ATOM     36  O   UNL     1     -30.190 -34.897  16.283  1.00  0.00    -0.387 OA
ATOM     37  H   UNL     1     -30.487 -34.810  15.358  1.00  0.00     0.211 HD
ENDBRANCH   2  36
BRANCH   6  38
ATOM     38  C   UNL     1     -32.409 -30.489  17.086  1.00  0.00     0.191 C 
BRANCH  38  39
ATOM     39  O   UNL     1     -31.759 -29.642  18.041  1.00  0.00    -0.394 OA
ATOM     40  H   UNL     1     -30.893 -30.060  18.219  1.00  0.00     0.210 HD
ENDBRANCH  38  39
ENDBRANCH   6  38
BRANCH   3  41
ATOM     41  O   UNL     1     -32.458 -36.152  17.224  1.00  0.00    -0.385 OA
ATOM     42  H   UNL     1     -32.422 -36.671  16.403  1.00  0.00     0.211 HD
ENDBRANCH   3  41
BRANCH   4  43
ATOM     43  O   UNL     1     -33.571 -34.169  19.019  1.00  0.00    -0.341 OA
BRANCH  43  44
ATOM     44  C   UNL     1     -34.879 -34.386  19.607  1.00  0.00     0.184 C 
BRANCH  44  45
ATOM     45  C   UNL     1     -35.030 -35.644  20.513  1.00  0.00     0.182 C 
BRANCH  45  46
ATOM     46  O   UNL     1     -35.914 -36.624  19.917  1.00  0.00    -0.387 OA
ATOM     47  H   UNL     1     -36.839 -36.378  20.120  1.00  0.00     0.211 HD
ENDBRANCH  45  46
BRANCH  45  48
ATOM     48  C   UNL     1     -33.757 -36.335  21.023  1.00  0.00     0.209 C 
BRANCH  48  49
ATOM     49  O   UNL     1     -33.928 -36.604  22.427  1.00  0.00    -0.383 OA
ATOM     50  H   UNL     1     -33.368 -35.961  22.906  1.00  0.00     0.211 HD
ENDBRANCH  48  49
BRANCH  48  51
ATOM     51  C   UNL     1     -33.505 -37.657  20.327  1.00  0.00     0.258 C 
ATOM     52  O   UNL     1     -33.538 -37.776  19.099  1.00  0.00    -0.300 OA
ENDBRANCH  48  51
ENDBRANCH  45  48
ENDBRANCH  44  45
BRANCH  44  53
ATOM     53  C   UNL     1     -35.254 -33.077  20.360  1.00  0.00     0.171 C 
BRANCH  53  54
ATOM     54  C   UNL     1     -34.513 -32.970  21.703  1.00  0.00     0.190 C 
BRANCH  54  55
ATOM     55  O   UNL     1     -33.113 -32.853  21.430  1.00  0.00    -0.394 OA
ATOM     56  H   UNL     1     -33.007 -32.494  20.530  1.00  0.00     0.210 HD
ENDBRANCH  54  55
ENDBRANCH  53  54
BRANCH  53  57
ATOM     57  O   UNL     1     -34.920 -31.918  19.588  1.00  0.00    -0.388 OA
ATOM     58  H   UNL     1     -34.161 -32.187  19.026  1.00  0.00     0.211 HD
ENDBRANCH  53  57
ENDBRANCH  44  53
ENDBRANCH  43  44
ENDBRANCH   4  43
TORSDOF 26
ENDMDL
MODEL 7
REMARK VINA RESULT:      -5.9      1.966      3.675
REMARK SMILES C[C@H]1O[C@H](O[C@H]2[C@H](O)[C@@H](O)[C@@H](O[C@@H]([C@@H](O)[C@@H](O)C=O)[C@H](O)CO)O[C@@H]2CO)[C@H](O)[C@@H](O)[C@@H]1N[C@H]1C=C(CO)[C@@H](O)[C@H](O)[C@H]1O
REMARK SMILES IDX 6 1 7 2 9 3 11 4 24 5 25 6 5 7 4 8 32 9 30 10 2 11 28 12
REMARK SMILES IDX 3 13 1 14 33 15 34 17 35 18 43 19 36 20 41 21 39 22 44 23
REMARK SMILES IDX 37 25 38 26 42 28 40 30 31 32 29 34 8 36 26 38 27 39 10 41
REMARK SMILES IDX 12 43 13 44 14 45 15 46 16 48 17 49 18 51 19 52 20 53 22 54
REMARK SMILES IDX 23 55 21 57
REMARK H PARENT 33 16 44 24 38 27 42 29 40 31 31 33 29 35 8 37 27 40 10 42
REMARK H PARENT 15 47 17 50 23 56 21 58
REMARK Flexibility Score: inf
ROOT
ATOM      1  C   UNL     1     -30.140 -28.245  14.883  1.00  0.00     0.184 C 
ATOM      2  C   UNL     1     -31.036 -27.447  15.857  1.00  0.00     0.180 C 
ATOM      3  C   UNL     1     -31.860 -26.403  15.114  1.00  0.00     0.202 C 
ATOM      4  C   UNL     1     -30.985 -25.509  14.221  1.00  0.00     0.282 C 
ATOM      5  O   UNL     1     -30.190 -26.306  13.351  1.00  0.00    -0.341 OA
ATOM      6  C   UNL     1     -29.337 -27.253  14.015  1.00  0.00     0.178 C 
ENDROOT
BRANCH   1   7
ATOM      7  O   UNL     1     -29.215 -29.122  15.561  1.00  0.00    -0.341 OA
BRANCH   7   8
ATOM      8  C   UNL     1     -29.648 -30.488  15.590  1.00  0.00     0.282 C 
ATOM      9  C   UNL     1     -27.122 -31.918  16.026  1.00  0.00     0.115 C 
ATOM     10  C   UNL     1     -27.880 -31.218  17.195  1.00  0.00     0.167 C 
ATOM     11  C   UNL     1     -27.634 -31.403  14.640  1.00  0.00     0.138 C 
ATOM     12  C   UNL     1     -29.380 -31.156  16.931  1.00  0.00     0.201 C 
ATOM     13  O   UNL     1     -29.057 -31.270  14.563  1.00  0.00    -0.345 OA
ATOM     14  C   UNL     1     -27.303 -32.383  13.510  1.00  0.00     0.040 C 
BRANCH   9  15
ATOM     15  N   UNL     1     -25.629 -31.781  16.121  1.00  0.00    -0.300 NA
ATOM     16  H   UNL     1     -25.254 -31.395  15.259  1.00  0.00     0.123 HD
BRANCH  15  17
ATOM     17  C   UNL     1     -24.906 -33.030  16.452  1.00  0.00     0.109 C 
ATOM     18  C   UNL     1     -23.994 -33.386  15.322  1.00  0.00    -0.001 C 
ATOM     19  C   UNL     1     -24.250 -33.091  17.869  1.00  0.00     0.167 C 
ATOM     20  C   UNL     1     -22.669 -33.598  15.388  1.00  0.00    -0.016 C 
ATOM     21  C   UNL     1     -22.709 -33.162  17.957  1.00  0.00     0.177 C 
ATOM     22  C   UNL     1     -21.916 -33.528  16.684  1.00  0.00     0.174 C 
BRANCH  19  23
ATOM     23  O   UNL     1     -24.722 -32.037  18.734  1.00  0.00    -0.388 OA
ATOM     24  H   UNL     1     -24.829 -31.237  18.195  1.00  0.00     0.211 HD
ENDBRANCH  19  23
BRANCH  20  25
ATOM     25  C   UNL     1     -21.823 -33.946  14.178  1.00  0.00     0.189 C 
BRANCH  25  26
ATOM     26  O   UNL     1     -21.262 -32.771  13.586  1.00  0.00    -0.392 OA
ATOM     27  H   UNL     1     -20.990 -33.014  12.683  1.00  0.00     0.211 HD
ENDBRANCH  25  26
ENDBRANCH  20  25
BRANCH  21  28
ATOM     28  O   UNL     1     -22.360 -34.112  19.000  1.00  0.00    -0.387 OA
ATOM     29  H   UNL     1     -21.423 -34.007  19.225  1.00  0.00     0.211 HD
ENDBRANCH  21  28
BRANCH  22  30
ATOM     30  O   UNL     1     -20.852 -32.588  16.501  1.00  0.00    -0.386 OA
ATOM     31  H   UNL     1     -20.483 -32.721  15.611  1.00  0.00     0.211 HD
ENDBRANCH  22  30
ENDBRANCH  15  17
ENDBRANCH   9  15
BRANCH  10  32
ATOM     32  O   UNL     1     -27.733 -31.916  18.453  1.00  0.00    -0.388 OA
ATOM     33  H   UNL     1     -28.580 -32.350  18.660  1.00  0.00     0.211 HD
ENDBRANCH  10  32
BRANCH  12  34
ATOM     34  O   UNL     1     -30.083 -30.507  17.999  1.00  0.00    -0.385 OA
ATOM     35  H   UNL     1     -30.566 -31.199  18.487  1.00  0.00     0.211 HD
ENDBRANCH  12  34
ENDBRANCH   7   8
ENDBRANCH   1   7
BRANCH   2  36
ATOM     36  O   UNL     1     -31.980 -28.303  16.524  1.00  0.00    -0.387 OA
ATOM     37  H   UNL     1     -32.842 -28.218  16.076  1.00  0.00     0.211 HD
ENDBRANCH   2  36
BRANCH   6  38
ATOM     38  C   UNL     1     -28.559 -27.958  12.894  1.00  0.00     0.191 C 
BRANCH  38  39
ATOM     39  O   UNL     1     -28.237 -27.006  11.874  1.00  0.00    -0.394 OA
ATOM     40  H   UNL     1     -27.263 -27.028  11.790  1.00  0.00     0.210 HD
ENDBRANCH  38  39
ENDBRANCH   6  38
BRANCH   3  41
ATOM     41  O   UNL     1     -32.673 -25.677  16.050  1.00  0.00    -0.385 OA
ATOM     42  H   UNL     1     -33.371 -25.209  15.561  1.00  0.00     0.211 HD
ENDBRANCH   3  41
BRANCH   4  43
ATOM     43  O   UNL     1     -30.219 -24.566  14.982  1.00  0.00    -0.341 OA
BRANCH  43  44
ATOM     44  C   UNL     1     -29.815 -23.380  14.252  1.00  0.00     0.184 C 
BRANCH  44  45
ATOM     45  C   UNL     1     -30.776 -22.156  14.335  1.00  0.00     0.182 C 
BRANCH  45  46
ATOM     46  O   UNL     1     -30.776 -21.398  13.101  1.00  0.00    -0.387 OA
ATOM     47  H   UNL     1     -29.887 -21.013  12.968  1.00  0.00     0.211 HD
ENDBRANCH  45  46
BRANCH  45  48
ATOM     48  C   UNL     1     -32.220 -22.391  14.801  1.00  0.00     0.209 C 
BRANCH  48  49
ATOM     49  O   UNL     1     -32.636 -21.240  15.560  1.00  0.00    -0.383 OA
ATOM     50  H   UNL     1     -33.211 -21.571  16.279  1.00  0.00     0.211 HD
ENDBRANCH  48  49
BRANCH  48  51
ATOM     51  C   UNL     1     -33.179 -22.548  13.638  1.00  0.00     0.258 C 
ATOM     52  O   UNL     1     -33.640 -21.582  13.024  1.00  0.00    -0.300 OA
ENDBRANCH  48  51
ENDBRANCH  45  48
ENDBRANCH  44  45
BRANCH  44  53
ATOM     53  C   UNL     1     -28.378 -23.026  14.731  1.00  0.00     0.171 C 
BRANCH  53  54
ATOM     54  C   UNL     1     -27.325 -23.910  14.044  1.00  0.00     0.190 C 
BRANCH  54  55
ATOM     55  O   UNL     1     -27.859 -24.345  12.790  1.00  0.00    -0.394 OA
ATOM     56  H   UNL     1     -27.704 -23.642  12.133  1.00  0.00     0.210 HD
ENDBRANCH  54  55
ENDBRANCH  53  54
BRANCH  53  57
ATOM     57  O   UNL     1     -28.054 -21.662  14.444  1.00  0.00    -0.388 OA
ATOM     58  H   UNL     1     -28.278 -21.162  15.259  1.00  0.00     0.211 HD
ENDBRANCH  53  57
ENDBRANCH  44  53
ENDBRANCH  43  44
ENDBRANCH   4  43
TORSDOF 26
ENDMDL
MODEL 8
REMARK VINA RESULT:      -5.8      2.529      9.045
REMARK SMILES C[C@H]1O[C@H](O[C@H]2[C@H](O)[C@@H](O)[C@@H](O[C@@H]([C@@H](O)[C@@H](O)C=O)[C@H](O)CO)O[C@@H]2CO)[C@H](O)[C@@H](O)[C@@H]1N[C@H]1C=C(CO)[C@@H](O)[C@H](O)[C@H]1O
REMARK SMILES IDX 6 1 7 2 9 3 11 4 24 5 25 6 5 7 4 8 32 9 30 10 2 11 28 12
REMARK SMILES IDX 3 13 1 14 33 15 34 17 35 18 43 19 36 20 41 21 39 22 44 23
REMARK SMILES IDX 37 25 38 26 42 28 40 30 31 32 29 34 8 36 26 38 27 39 10 41
REMARK SMILES IDX 12 43 13 44 14 45 15 46 16 48 17 49 18 51 19 52 20 53 22 54
REMARK SMILES IDX 23 55 21 57
REMARK H PARENT 33 16 44 24 38 27 42 29 40 31 31 33 29 35 8 37 27 40 10 42
REMARK H PARENT 15 47 17 50 23 56 21 58
REMARK Flexibility Score: inf
ROOT
ATOM      1  C   UNL     1     -28.294 -31.228  13.431  1.00  0.00     0.184 C 
ATOM      2  C   UNL     1     -26.764 -31.135  13.230  1.00  0.00     0.180 C 
ATOM      3  C   UNL     1     -26.081 -32.447  13.593  1.00  0.00     0.202 C 
ATOM      4  C   UNL     1     -26.481 -32.933  14.995  1.00  0.00     0.282 C 
ATOM      5  O   UNL     1     -27.898 -32.998  15.111  1.00  0.00    -0.341 OA
ATOM      6  C   UNL     1     -28.579 -31.760  14.851  1.00  0.00     0.178 C 
ENDROOT
BRANCH   1   7
ATOM      7  O   UNL     1     -28.960 -29.959  13.268  1.00  0.00    -0.341 OA
BRANCH   7   8
ATOM      8  C   UNL     1     -30.012 -29.993  12.294  1.00  0.00     0.282 C 
ATOM      9  C   UNL     1     -30.705 -27.151  12.048  1.00  0.00     0.115 C 
ATOM     10  C   UNL     1     -29.458 -27.756  11.333  1.00  0.00     0.167 C 
ATOM     11  C   UNL     1     -31.222 -28.107  13.174  1.00  0.00     0.138 C 
ATOM     12  C   UNL     1     -29.654 -29.235  11.024  1.00  0.00     0.201 C 
ATOM     13  O   UNL     1     -31.239 -29.488  12.798  1.00  0.00    -0.345 OA
ATOM     14  C   UNL     1     -32.680 -27.818  13.544  1.00  0.00     0.040 C 
BRANCH   9  15
ATOM     15  N   UNL     1     -30.467 -25.773  12.594  1.00  0.00    -0.300 NA
ATOM     16  H   UNL     1     -30.131 -25.155  11.859  1.00  0.00     0.123 HD
BRANCH  15  17
ATOM     17  C   UNL     1     -29.541 -25.708  13.746  1.00  0.00     0.109 C 
ATOM     18  C   UNL     1     -28.176 -25.338  13.263  1.00  0.00    -0.001 C 
ATOM     19  C   UNL     1     -30.040 -24.897  14.986  1.00  0.00     0.167 C 
ATOM     20  C   UNL     1     -27.422 -24.306  13.679  1.00  0.00    -0.016 C 
ATOM     21  C   UNL     1     -29.278 -23.609  15.370  1.00  0.00     0.177 C 
ATOM     22  C   UNL     1     -27.879 -23.373  14.762  1.00  0.00     0.174 C 
BRANCH  19  23
ATOM     23  O   UNL     1     -31.451 -24.605  14.913  1.00  0.00    -0.388 OA
ATOM     24  H   UNL     1     -31.560 -23.797  14.386  1.00  0.00     0.211 HD
ENDBRANCH  19  23
BRANCH  20  25
ATOM     25  C   UNL     1     -26.046 -24.004  13.118  1.00  0.00     0.189 C 
BRANCH  25  26
ATOM     26  O   UNL     1     -25.049 -24.833  13.720  1.00  0.00    -0.392 OA
ATOM     27  H   UNL     1     -24.332 -24.244  14.015  1.00  0.00     0.211 HD
ENDBRANCH  25  26
ENDBRANCH  20  25
BRANCH  21  28
ATOM     28  O   UNL     1     -29.158 -23.571  16.818  1.00  0.00    -0.387 OA
ATOM     29  H   UNL     1     -28.729 -22.741  17.079  1.00  0.00     0.211 HD
ENDBRANCH  21  28
BRANCH  22  30
ATOM     30  O   UNL     1     -27.810 -22.046  14.228  1.00  0.00    -0.386 OA
ATOM     31  H   UNL     1     -27.311 -22.082  13.395  1.00  0.00     0.211 HD
ENDBRANCH  22  30
ENDBRANCH  15  17
ENDBRANCH   9  15
BRANCH  10  32
ATOM     32  O   UNL     1     -29.183 -27.123  10.062  1.00  0.00    -0.388 OA
ATOM     33  H   UNL     1     -28.332 -27.463   9.732  1.00  0.00     0.211 HD
ENDBRANCH  10  32
BRANCH  12  34
ATOM     34  O   UNL     1     -28.507 -29.799  10.372  1.00  0.00    -0.385 OA
ATOM     35  H   UNL     1     -27.833 -29.954  11.059  1.00  0.00     0.211 HD
ENDBRANCH  12  34
ENDBRANCH   7   8
ENDBRANCH   1   7
BRANCH   2  36
ATOM     36  O   UNL     1     -26.430 -30.876  11.854  1.00  0.00    -0.387 OA
ATOM     37  H   UNL     1     -26.139 -31.713  11.446  1.00  0.00     0.211 HD
ENDBRANCH   2  36
BRANCH   6  38
ATOM     38  C   UNL     1     -30.069 -32.059  15.072  1.00  0.00     0.191 C 
BRANCH  38  39
ATOM     39  O   UNL     1     -30.319 -32.191  16.476  1.00  0.00    -0.394 OA
ATOM     40  H   UNL     1     -30.588 -33.121  16.611  1.00  0.00     0.210 HD
ENDBRANCH  38  39
ENDBRANCH   6  38
BRANCH   3  41
ATOM     41  O   UNL     1     -24.663 -32.320  13.402  1.00  0.00    -0.385 OA
ATOM     42  H   UNL     1     -24.251 -33.192  13.528  1.00  0.00     0.211 HD
ENDBRANCH   3  41
BRANCH   4  43
ATOM     43  O   UNL     1     -25.863 -32.162  16.034  1.00  0.00    -0.341 OA
BRANCH  43  44
ATOM     44  C   UNL     1     -26.111 -32.644  17.379  1.00  0.00     0.184 C 
BRANCH  44  45
ATOM     45  C   UNL     1     -24.865 -33.116  18.186  1.00  0.00     0.182 C 
BRANCH  45  46
ATOM     46  O   UNL     1     -25.171 -34.265  19.012  1.00  0.00    -0.387 OA
ATOM     47  H   UNL     1     -26.128 -34.260  19.215  1.00  0.00     0.211 HD
ENDBRANCH  45  46
BRANCH  45  48
ATOM     48  C   UNL     1     -23.551 -33.355  17.428  1.00  0.00     0.209 C 
BRANCH  48  49
ATOM     49  O   UNL     1     -23.234 -32.156  16.696  1.00  0.00    -0.383 OA
ATOM     50  H   UNL     1     -23.659 -32.243  15.819  1.00  0.00     0.211 HD
ENDBRANCH  48  49
BRANCH  48  51
ATOM     51  C   UNL     1     -22.395 -33.643  18.365  1.00  0.00     0.258 C 
ATOM     52  O   UNL     1     -22.187 -34.766  18.834  1.00  0.00    -0.300 OA
ENDBRANCH  48  51
ENDBRANCH  45  48
ENDBRANCH  44  45
BRANCH  44  53
ATOM     53  C   UNL     1     -26.896 -31.523  18.119  1.00  0.00     0.171 C 
BRANCH  53  54
ATOM     54  C   UNL     1     -27.790 -32.102  19.228  1.00  0.00     0.190 C 
BRANCH  54  55
ATOM     55  O   UNL     1     -28.109 -31.045  20.138  1.00  0.00    -0.394 OA
ATOM     56  H   UNL     1     -27.493 -31.097  20.893  1.00  0.00     0.210 HD
ENDBRANCH  54  55
ENDBRANCH  53  54
BRANCH  53  57
ATOM     57  O   UNL     1     -26.007 -30.579  18.727  1.00  0.00    -0.388 OA
ATOM     58  H   UNL     1     -25.257 -31.111  19.072  1.00  0.00     0.211 HD
ENDBRANCH  53  57
ENDBRANCH  44  53
ENDBRANCH  43  44
ENDBRANCH   4  43
TORSDOF 26
ENDMDL
MODEL 9
REMARK VINA RESULT:      -5.8      1.352      1.701
REMARK SMILES C[C@H]1O[C@H](O[C@H]2[C@H](O)[C@@H](O)[C@@H](O[C@@H]([C@@H](O)[C@@H](O)C=O)[C@H](O)CO)O[C@@H]2CO)[C@H](O)[C@@H](O)[C@@H]1N[C@H]1C=C(CO)[C@@H](O)[C@H](O)[C@H]1O
REMARK SMILES IDX 6 1 7 2 9 3 11 4 24 5 25 6 5 7 4 8 32 9 30 10 2 11 28 12
REMARK SMILES IDX 3 13 1 14 33 15 34 17 35 18 43 19 36 20 41 21 39 22 44 23
REMARK SMILES IDX 37 25 38 26 42 28 40 30 31 32 29 34 8 36 26 38 27 39 10 41
REMARK SMILES IDX 12 43 13 44 14 45 15 46 16 48 17 49 18 51 19 52 20 53 22 54
REMARK SMILES IDX 23 55 21 57
REMARK H PARENT 33 16 44 24 38 27 42 29 40 31 31 33 29 35 8 37 27 40 10 42
REMARK H PARENT 15 47 17 50 23 56 21 58
REMARK Flexibility Score: inf
ROOT
ATOM      1  C   UNL     1     -30.740 -29.642  16.197  1.00  0.00     0.184 C 
ATOM      2  C   UNL     1     -30.748 -28.279  16.925  1.00  0.00     0.180 C 
ATOM      3  C   UNL     1     -31.625 -27.271  16.192  1.00  0.00     0.202 C 
ATOM      4  C   UNL     1     -31.257 -27.164  14.704  1.00  0.00     0.282 C 
ATOM      5  O   UNL     1     -31.270 -28.451  14.097  1.00  0.00    -0.341 OA
ATOM      6  C   UNL     1     -30.397 -29.413  14.710  1.00  0.00     0.178 C 
ENDROOT
BRANCH   1   7
ATOM      7  O   UNL     1     -29.788 -30.571  16.756  1.00  0.00    -0.341 OA
BRANCH   7   8
ATOM      8  C   UNL     1     -30.401 -31.644  17.482  1.00  0.00     0.282 C 
ATOM      9  C   UNL     1     -28.226 -33.609  17.620  1.00  0.00     0.115 C 
ATOM     10  C   UNL     1     -28.279 -32.378  18.575  1.00  0.00     0.167 C 
ATOM     11  C   UNL     1     -29.178 -33.408  16.394  1.00  0.00     0.138 C 
ATOM     12  C   UNL     1     -29.712 -31.916  18.811  1.00  0.00     0.201 C 
ATOM     13  O   UNL     1     -30.451 -32.850  16.736  1.00  0.00    -0.345 OA
ATOM     14  C   UNL     1     -29.537 -34.739  15.726  1.00  0.00     0.040 C 
BRANCH   9  15
ATOM     15  N   UNL     1     -26.836 -33.943  17.159  1.00  0.00    -0.300 NA
ATOM     16  H   UNL     1     -26.471 -34.735  17.683  1.00  0.00     0.123 HD
BRANCH  15  17
ATOM     17  C   UNL     1     -25.868 -32.826  17.227  1.00  0.00     0.109 C 
ATOM     18  C   UNL     1     -24.728 -33.213  18.113  1.00  0.00    -0.001 C 
ATOM     19  C   UNL     1     -25.452 -32.190  15.861  1.00  0.00     0.167 C 
ATOM     20  C   UNL     1     -23.422 -33.211  17.798  1.00  0.00    -0.016 C 
ATOM     21  C   UNL     1     -23.982 -32.334  15.408  1.00  0.00     0.177 C 
ATOM     22  C   UNL     1     -22.929 -32.763  16.453  1.00  0.00     0.174 C 
BRANCH  19  23
ATOM     23  O   UNL     1     -26.318 -32.602  14.783  1.00  0.00    -0.388 OA
ATOM     24  H   UNL     1     -25.874 -32.388  13.947  1.00  0.00     0.211 HD
ENDBRANCH  19  23
BRANCH  20  25
ATOM     25  C   UNL     1     -22.333 -33.633  18.765  1.00  0.00     0.189 C 
BRANCH  25  26
ATOM     26  O   UNL     1     -21.971 -35.003  18.569  1.00  0.00    -0.392 OA
ATOM     27  H   UNL     1     -21.675 -35.086  17.645  1.00  0.00     0.211 HD
ENDBRANCH  25  26
ENDBRANCH  20  25
BRANCH  21  28
ATOM     28  O   UNL     1     -23.562 -31.067  14.833  1.00  0.00    -0.387 OA
ATOM     29  H   UNL     1     -24.076 -30.899  14.027  1.00  0.00     0.211 HD
ENDBRANCH  21  28
BRANCH  22  30
ATOM     30  O   UNL     1     -22.138 -33.831  15.919  1.00  0.00    -0.386 OA
ATOM     31  H   UNL     1     -21.821 -33.560  15.041  1.00  0.00     0.211 HD
ENDBRANCH  22  30
ENDBRANCH  15  17
ENDBRANCH   9  15
BRANCH  10  32
ATOM     32  O   UNL     1     -27.739 -32.664  19.885  1.00  0.00    -0.388 OA
ATOM     33  H   UNL     1     -26.874 -33.097  19.768  1.00  0.00     0.211 HD
ENDBRANCH  10  32
BRANCH  12  34
ATOM     34  O   UNL     1     -29.769 -30.779  19.684  1.00  0.00    -0.385 OA
ATOM     35  H   UNL     1     -29.747 -31.117  20.598  1.00  0.00     0.211 HD
ENDBRANCH  12  34
ENDBRANCH   7   8
ENDBRANCH   1   7
BRANCH   2  36
ATOM     36  O   UNL     1     -31.293 -28.394  18.252  1.00  0.00    -0.387 OA
ATOM     37  H   UNL     1     -32.219 -28.689  18.179  1.00  0.00     0.211 HD
ENDBRANCH   2  36
BRANCH   6  38
ATOM     38  C   UNL     1     -30.548 -30.693  13.875  1.00  0.00     0.191 C 
BRANCH  38  39
ATOM     39  O   UNL     1     -30.145 -30.425  12.527  1.00  0.00    -0.394 OA
ATOM     40  H   UNL     1     -29.747 -31.256  12.199  1.00  0.00     0.210 HD
ENDBRANCH  38  39
ENDBRANCH   6  38
BRANCH   3  41
ATOM     41  O   UNL     1     -31.602 -26.016  16.891  1.00  0.00    -0.385 OA
ATOM     42  H   UNL     1     -30.877 -25.473  16.536  1.00  0.00     0.211 HD
ENDBRANCH   3  41
BRANCH   4  43
ATOM     43  O   UNL     1     -30.028 -26.455  14.499  1.00  0.00    -0.341 OA
BRANCH  43  44
ATOM     44  C   UNL     1     -30.153 -25.232  13.729  1.00  0.00     0.184 C 
BRANCH  44  45
ATOM     45  C   UNL     1     -28.839 -24.432  13.483  1.00  0.00     0.182 C 
BRANCH  45  46
ATOM     46  O   UNL     1     -28.916 -23.099  14.044  1.00  0.00    -0.387 OA
ATOM     47  H   UNL     1     -28.033 -22.683  13.989  1.00  0.00     0.211 HD
ENDBRANCH  45  46
BRANCH  45  48
ATOM     48  C   UNL     1     -27.503 -25.083  13.871  1.00  0.00     0.209 C 
BRANCH  48  49
ATOM     49  O   UNL     1     -27.501 -26.431  13.365  1.00  0.00    -0.383 OA
ATOM     50  H   UNL     1     -27.419 -26.365  12.392  1.00  0.00     0.211 HD
ENDBRANCH  48  49
BRANCH  48  51
ATOM     51  C   UNL     1     -26.317 -24.360  13.265  1.00  0.00     0.258 C 
ATOM     52  O   UNL     1     -26.150 -23.143  13.387  1.00  0.00    -0.300 OA
ENDBRANCH  48  51
ENDBRANCH  45  48
ENDBRANCH  44  45
BRANCH  44  53
ATOM     53  C   UNL     1     -30.863 -25.611  12.398  1.00  0.00     0.171 C 
BRANCH  53  54
ATOM     54  C   UNL     1     -31.615 -24.410  11.801  1.00  0.00     0.190 C 
BRANCH  54  55
ATOM     55  O   UNL     1     -32.822 -24.227  12.547  1.00  0.00    -0.394 OA
ATOM     56  H   UNL     1     -33.570 -24.513  11.992  1.00  0.00     0.210 HD
ENDBRANCH  54  55
ENDBRANCH  53  54
BRANCH  53  57
ATOM     57  O   UNL     1     -29.923 -26.065  11.417  1.00  0.00    -0.388 OA
ATOM     58  H   UNL     1     -30.005 -27.043  11.409  1.00  0.00     0.211 HD
ENDBRANCH  53  57
ENDBRANCH  44  53
ENDBRANCH  43  44
ENDBRANCH   4  43
TORSDOF 26
ENDMDL
