MODEL 1
REMARK VINA RESULT:      -6.2      0.000      0.000
REMARK SMILES C[C@H]1O[C@H](O[C@H]2[C@H](O)[C@@H](O)[C@@H](OC[C@H]3O[C@@H](O)[C@H](O)[C@@H](O)[C@@H]3O)O[C@@H]2CO)[C@H](O)[C@@H](O)[C@@H]1N[C@H]1C=C(CO)[C@@H](O)[C@H](O)[C@H]1O
REMARK SMILES IDX 5 1 4 2 1 3 2 4 32 5 3 6 30 7 28 8 33 9 34 11 35 12 43 13
REMARK SMILES IDX 36 14 41 15 39 16 44 17 37 19 38 20 42 22 40 24 31 26 29 28
REMARK SMILES IDX 6 30 25 31 7 32 24 33 9 34 11 35 26 36 27 37 8 39 10 41
REMARK SMILES IDX 12 43 13 44 14 45 22 46 15 47 20 48 16 49 18 50 23 51 21 53
REMARK SMILES IDX 17 55 19 57
REMARK H PARENT 33 10 44 18 38 21 42 23 40 25 31 27 29 29 27 38 8 40 10 42
REMARK H PARENT 23 52 21 54 17 56 19 58
REMARK Flexibility Score: inf
ROOT
ATOM      1  O   UNL     1     -31.657 -32.239  17.755  1.00  0.00    -0.341 OA
ENDROOT
BRANCH   1   2
ATOM      2  C   UNL     1     -32.704 -33.119  17.367  1.00  0.00     0.282 C 
ATOM      3  C   UNL     1     -33.681 -35.779  16.330  1.00  0.00     0.040 C 
ATOM      4  C   UNL     1     -33.635 -35.289  17.784  1.00  0.00     0.138 C 
ATOM      5  C   UNL     1     -34.963 -34.671  18.324  1.00  0.00     0.115 C 
ATOM      6  O   UNL     1     -32.541 -34.383  18.000  1.00  0.00    -0.345 OA
ATOM      7  C   UNL     1     -35.223 -33.328  17.585  1.00  0.00     0.167 C 
ATOM      8  C   UNL     1     -34.021 -32.397  17.748  1.00  0.00     0.201 C 
BRANCH   5   9
ATOM      9  N   UNL     1     -34.850 -34.532  19.820  1.00  0.00    -0.300 NA
ATOM     10  H   UNL     1     -34.235 -35.268  20.168  1.00  0.00     0.123 HD
BRANCH   9  11
ATOM     11  C   UNL     1     -36.137 -34.577  20.552  1.00  0.00     0.109 C 
ATOM     12  C   UNL     1     -36.339 -35.947  21.108  1.00  0.00    -0.001 C 
ATOM     13  C   UNL     1     -36.346 -33.428  21.590  1.00  0.00     0.167 C 
ATOM     14  C   UNL     1     -36.291 -36.279  22.400  1.00  0.00    -0.016 C 
ATOM     15  C   UNL     1     -36.217 -33.769  23.094  1.00  0.00     0.177 C 
ATOM     16  C   UNL     1     -36.094 -35.256  23.491  1.00  0.00     0.174 C 
BRANCH  13  17
ATOM     17  O   UNL     1     -35.535 -32.275  21.282  1.00  0.00    -0.388 OA
ATOM     18  H   UNL     1     -35.975 -31.489  21.645  1.00  0.00     0.211 HD
ENDBRANCH  13  17
BRANCH  14  19
ATOM     19  C   UNL     1     -36.357 -37.706  22.887  1.00  0.00     0.189 C 
BRANCH  19  20
ATOM     20  O   UNL     1     -35.144 -38.395  22.609  1.00  0.00    -0.392 OA
ATOM     21  H   UNL     1     -35.008 -39.025  23.336  1.00  0.00     0.211 HD
ENDBRANCH  19  20
ENDBRANCH  14  19
BRANCH  15  22
ATOM     22  O   UNL     1     -37.362 -33.202  23.784  1.00  0.00    -0.387 OA
ATOM     23  H   UNL     1     -37.056 -32.472  24.351  1.00  0.00     0.211 HD
ENDBRANCH  15  22
BRANCH  16  24
ATOM     24  O   UNL     1     -34.830 -35.537  24.098  1.00  0.00    -0.386 OA
ATOM     25  H   UNL     1     -34.332 -36.142  23.526  1.00  0.00     0.211 HD
ENDBRANCH  16  24
ENDBRANCH   9  11
ENDBRANCH   5   9
BRANCH   7  26
ATOM     26  O   UNL     1     -35.513 -33.564  16.204  1.00  0.00    -0.388 OA
ATOM     27  H   UNL     1     -36.274 -34.169  16.152  1.00  0.00     0.211 HD
ENDBRANCH   7  26
BRANCH   8  28
ATOM     28  O   UNL     1     -33.991 -31.886  19.089  1.00  0.00    -0.385 OA
ATOM     29  H   UNL     1     -33.087 -32.057  19.434  1.00  0.00     0.211 HD
ENDBRANCH   8  28
ENDBRANCH   1   2
BRANCH   1  30
ATOM     30  C   UNL     1     -31.300 -31.208  16.826  1.00  0.00     0.184 C 
ATOM     31  C   UNL     1     -30.134 -31.825  16.030  1.00  0.00     0.178 C 
ATOM     32  C   UNL     1     -30.826 -29.929  17.542  1.00  0.00     0.180 C 
ATOM     33  O   UNL     1     -29.051 -32.124  16.924  1.00  0.00    -0.341 OA
ATOM     34  C   UNL     1     -29.621 -30.244  18.447  1.00  0.00     0.202 C 
ATOM     35  C   UNL     1     -28.525 -31.040  17.682  1.00  0.00     0.282 C 
BRANCH  31  36
ATOM     36  C   UNL     1     -29.677 -31.066  14.774  1.00  0.00     0.191 C 
BRANCH  36  37
ATOM     37  O   UNL     1     -30.627 -31.155  13.717  1.00  0.00    -0.394 OA
ATOM     38  H   UNL     1     -30.972 -30.264  13.533  1.00  0.00     0.210 HD
ENDBRANCH  36  37
ENDBRANCH  31  36
BRANCH  32  39
ATOM     39  O   UNL     1     -30.564 -28.913  16.572  1.00  0.00    -0.387 OA
ATOM     40  H   UNL     1     -29.849 -28.331  16.882  1.00  0.00     0.211 HD
ENDBRANCH  32  39
BRANCH  34  41
ATOM     41  O   UNL     1     -30.094 -30.977  19.595  1.00  0.00    -0.385 OA
ATOM     42  H   UNL     1     -30.749 -31.610  19.237  1.00  0.00     0.211 HD
ENDBRANCH  34  41
BRANCH  35  43
ATOM     43  O   UNL     1     -27.601 -31.563  18.656  1.00  0.00    -0.347 OA
BRANCH  43  44
ATOM     44  C   UNL     1     -26.813 -32.631  18.115  1.00  0.00     0.198 C 
BRANCH  44  45
ATOM     45  C   UNL     1     -25.445 -32.138  17.605  1.00  0.00     0.178 C 
ATOM     46  C   UNL     1     -25.144 -32.700  16.200  1.00  0.00     0.177 C 
ATOM     47  O   UNL     1     -24.351 -32.360  18.520  1.00  0.00    -0.342 OA
ATOM     48  C   UNL     1     -24.591 -34.141  16.243  1.00  0.00     0.179 C 
ATOM     49  C   UNL     1     -23.849 -33.684  18.604  1.00  0.00     0.279 C 
ATOM     50  C   UNL     1     -23.413 -34.230  17.227  1.00  0.00     0.201 C 
BRANCH  46  51
ATOM     51  O   UNL     1     -24.206 -31.823  15.556  1.00  0.00    -0.387 OA
ATOM     52  H   UNL     1     -24.694 -31.352  14.849  1.00  0.00     0.211 HD
ENDBRANCH  46  51
BRANCH  48  53
ATOM     53  O   UNL     1     -25.623 -35.083  16.556  1.00  0.00    -0.387 OA
ATOM     54  H   UNL     1     -26.383 -34.597  16.933  1.00  0.00     0.211 HD
ENDBRANCH  48  53
BRANCH  49  55
ATOM     55  O   UNL     1     -24.805 -34.535  19.194  1.00  0.00    -0.366 OA
ATOM     56  H   UNL     1     -25.304 -34.902  18.439  1.00  0.00     0.213 HD
ENDBRANCH  49  55
BRANCH  50  57
ATOM     57  O   UNL     1     -22.308 -33.479  16.692  1.00  0.00    -0.385 OA
ATOM     58  H   UNL     1     -21.596 -33.461  17.356  1.00  0.00     0.211 HD
ENDBRANCH  50  57
ENDBRANCH  44  45
ENDBRANCH  43  44
ENDBRANCH  35  43
ENDBRANCH   1  30
TORSDOF 22
ENDMDL
MODEL 2
REMARK VINA RESULT:      -5.9      5.241     10.831
REMARK SMILES C[C@H]1O[C@H](O[C@H]2[C@H](O)[C@@H](O)[C@@H](OC[C@H]3O[C@@H](O)[C@H](O)[C@@H](O)[C@@H]3O)O[C@@H]2CO)[C@H](O)[C@@H](O)[C@@H]1N[C@H]1C=C(CO)[C@@H](O)[C@H](O)[C@H]1O
REMARK SMILES IDX 5 1 4 2 1 3 2 4 32 5 3 6 30 7 28 8 33 9 34 11 35 12 43 13
REMARK SMILES IDX 36 14 41 15 39 16 44 17 37 19 38 20 42 22 40 24 31 26 29 28
REMARK SMILES IDX 6 30 25 31 7 32 24 33 9 34 11 35 26 36 27 37 8 39 10 41
REMARK SMILES IDX 12 43 13 44 14 45 22 46 15 47 20 48 16 49 18 50 23 51 21 53
REMARK SMILES IDX 17 55 19 57
REMARK H PARENT 33 10 44 18 38 21 42 23 40 25 31 27 29 29 27 38 8 40 10 42
REMARK H PARENT 23 52 21 54 17 56 19 58
REMARK Flexibility Score: inf
ROOT
ATOM      1  O   UNL     1     -26.386 -31.467  17.070  1.00  0.00    -0.341 OA
ENDROOT
BRANCH   1   2
ATOM      2  C   UNL     1     -25.135 -32.131  16.949  1.00  0.00     0.282 C 
ATOM      3  C   UNL     1     -23.017 -34.005  18.003  1.00  0.00     0.040 C 
ATOM      4  C   UNL     1     -24.107 -34.297  16.961  1.00  0.00     0.138 C 
ATOM      5  C   UNL     1     -23.664 -34.151  15.471  1.00  0.00     0.115 C 
ATOM      6  O   UNL     1     -25.291 -33.522  17.207  1.00  0.00    -0.345 OA
ATOM      7  C   UNL     1     -23.394 -32.648  15.178  1.00  0.00     0.167 C 
ATOM      8  C   UNL     1     -24.629 -31.816  15.519  1.00  0.00     0.201 C 
BRANCH   5   9
ATOM      9  N   UNL     1     -24.728 -34.762  14.597  1.00  0.00    -0.300 NA
ATOM     10  H   UNL     1     -24.868 -35.731  14.885  1.00  0.00     0.123 HD
BRANCH   9  11
ATOM     11  C   UNL     1     -24.447 -34.714  13.143  1.00  0.00     0.109 C 
ATOM     12  C   UNL     1     -23.407 -35.730  12.809  1.00  0.00    -0.001 C 
ATOM     13  C   UNL     1     -25.711 -34.767  12.225  1.00  0.00     0.167 C 
ATOM     14  C   UNL     1     -23.608 -36.853  12.116  1.00  0.00    -0.016 C 
ATOM     15  C   UNL     1     -26.012 -36.084  11.471  1.00  0.00     0.177 C 
ATOM     16  C   UNL     1     -24.942 -37.198  11.504  1.00  0.00     0.174 C 
BRANCH  13  17
ATOM     17  O   UNL     1     -26.895 -34.324  12.920  1.00  0.00    -0.388 OA
ATOM     18  H   UNL     1     -27.205 -35.050  13.486  1.00  0.00     0.211 HD
ENDBRANCH  13  17
BRANCH  14  19
ATOM     19  C   UNL     1     -22.546 -37.912  11.938  1.00  0.00     0.189 C 
BRANCH  19  20
ATOM     20  O   UNL     1     -22.668 -38.925  12.929  1.00  0.00    -0.392 OA
ATOM     21  H   UNL     1     -21.802 -39.359  12.993  1.00  0.00     0.211 HD
ENDBRANCH  19  20
ENDBRANCH  14  19
BRANCH  15  22
ATOM     22  O   UNL     1     -26.289 -35.755  10.084  1.00  0.00    -0.387 OA
ATOM     23  H   UNL     1     -25.488 -35.367   9.688  1.00  0.00     0.211 HD
ENDBRANCH  15  22
BRANCH  16  24
ATOM     24  O   UNL     1     -25.417 -38.365  12.178  1.00  0.00    -0.386 OA
ATOM     25  H   UNL     1     -25.954 -38.889  11.562  1.00  0.00     0.211 HD
ENDBRANCH  16  24
ENDBRANCH   9  11
ENDBRANCH   5   9
BRANCH   7  26
ATOM     26  O   UNL     1     -22.246 -32.195  15.902  1.00  0.00    -0.388 OA
ATOM     27  H   UNL     1     -21.455 -32.380  15.366  1.00  0.00     0.211 HD
ENDBRANCH   7  26
BRANCH   8  28
ATOM     28  O   UNL     1     -25.643 -32.035  14.525  1.00  0.00    -0.385 OA
ATOM     29  H   UNL     1     -25.261 -32.657  13.868  1.00  0.00     0.211 HD
ENDBRANCH   8  28
ENDBRANCH   1   2
BRANCH   1  30
ATOM     30  C   UNL     1     -27.501 -32.259  17.497  1.00  0.00     0.184 C 
ATOM     31  C   UNL     1     -28.661 -31.758  16.615  1.00  0.00     0.178 C 
ATOM     32  C   UNL     1     -27.835 -32.026  18.983  1.00  0.00     0.180 C 
ATOM     33  O   UNL     1     -28.881 -30.361  16.866  1.00  0.00    -0.341 OA
ATOM     34  C   UNL     1     -28.138 -30.538  19.231  1.00  0.00     0.202 C 
ATOM     35  C   UNL     1     -29.173 -29.987  18.208  1.00  0.00     0.282 C 
BRANCH  31  36
ATOM     36  C   UNL     1     -29.958 -32.581  16.646  1.00  0.00     0.191 C 
BRANCH  36  37
ATOM     37  O   UNL     1     -30.944 -32.064  15.759  1.00  0.00    -0.394 OA
ATOM     38  H   UNL     1     -30.516 -31.843  14.913  1.00  0.00     0.210 HD
ENDBRANCH  36  37
ENDBRANCH  31  36
BRANCH  32  39
ATOM     39  O   UNL     1     -28.897 -32.900  19.372  1.00  0.00    -0.387 OA
ATOM     40  H   UNL     1     -29.429 -32.487  20.074  1.00  0.00     0.211 HD
ENDBRANCH  32  39
BRANCH  34  41
ATOM     41  O   UNL     1     -26.898 -29.804  19.167  1.00  0.00    -0.385 OA
ATOM     42  H   UNL     1     -26.515 -30.034  18.296  1.00  0.00     0.211 HD
ENDBRANCH  34  41
BRANCH  35  43
ATOM     43  O   UNL     1     -29.160 -28.549  18.300  1.00  0.00    -0.347 OA
BRANCH  43  44
ATOM     44  C   UNL     1     -30.488 -28.011  18.337  1.00  0.00     0.198 C 
BRANCH  44  45
ATOM     45  C   UNL     1     -30.752 -27.046  17.165  1.00  0.00     0.178 C 
ATOM     46  C   UNL     1     -30.345 -25.604  17.535  1.00  0.00     0.177 C 
ATOM     47  O   UNL     1     -32.090 -27.108  16.630  1.00  0.00    -0.342 OA
ATOM     48  C   UNL     1     -31.428 -24.874  18.359  1.00  0.00     0.179 C 
ATOM     49  C   UNL     1     -33.110 -26.475  17.387  1.00  0.00     0.279 C 
ATOM     50  C   UNL     1     -32.794 -24.989  17.663  1.00  0.00     0.201 C 
BRANCH  46  51
ATOM     51  O   UNL     1     -30.073 -24.887  16.319  1.00  0.00    -0.387 OA
ATOM     52  H   UNL     1     -29.106 -24.741  16.284  1.00  0.00     0.211 HD
ENDBRANCH  46  51
BRANCH  48  53
ATOM     53  O   UNL     1     -31.471 -25.361  19.705  1.00  0.00    -0.387 OA
ATOM     54  H   UNL     1     -31.069 -24.689  20.292  1.00  0.00     0.211 HD
ENDBRANCH  48  53
BRANCH  49  55
ATOM     55  O   UNL     1     -33.324 -27.168  18.596  1.00  0.00    -0.366 OA
ATOM     56  H   UNL     1     -34.078 -26.708  19.011  1.00  0.00     0.213 HD
ENDBRANCH  49  55
BRANCH  50  57
ATOM     57  O   UNL     1     -32.753 -24.228  16.441  1.00  0.00    -0.385 OA
ATOM     58  H   UNL     1     -32.393 -24.795  15.736  1.00  0.00     0.211 HD
ENDBRANCH  50  57
ENDBRANCH  44  45
ENDBRANCH  43  44
ENDBRANCH  35  43
ENDBRANCH   1  30
TORSDOF 22
ENDMDL
MODEL 3
REMARK VINA RESULT:      -5.8      2.627     10.017
REMARK SMILES C[C@H]1O[C@H](O[C@H]2[C@H](O)[C@@H](O)[C@@H](OC[C@H]3O[C@@H](O)[C@H](O)[C@@H](O)[C@@H]3O)O[C@@H]2CO)[C@H](O)[C@@H](O)[C@@H]1N[C@H]1C=C(CO)[C@@H](O)[C@H](O)[C@H]1O
REMARK SMILES IDX 5 1 4 2 1 3 2 4 32 5 3 6 30 7 28 8 33 9 34 11 35 12 43 13
REMARK SMILES IDX 36 14 41 15 39 16 44 17 37 19 38 20 42 22 40 24 31 26 29 28
REMARK SMILES IDX 6 30 25 31 7 32 24 33 9 34 11 35 26 36 27 37 8 39 10 41
REMARK SMILES IDX 12 43 13 44 14 45 22 46 15 47 20 48 16 49 18 50 23 51 21 53
REMARK SMILES IDX 17 55 19 57
REMARK H PARENT 33 10 44 18 38 21 42 23 40 25 31 27 29 29 27 38 8 40 10 42
REMARK H PARENT 23 52 21 54 17 56 19 58
REMARK Flexibility Score: inf
ROOT
ATOM      1  O   UNL     1     -31.311 -33.080  15.793  1.00  0.00    -0.341 OA
ENDROOT
BRANCH   1   2
ATOM      2  C   UNL     1     -30.520 -33.249  14.624  1.00  0.00     0.282 C 
ATOM      3  C   UNL     1     -29.405 -32.233  12.010  1.00  0.00     0.040 C 
ATOM      4  C   UNL     1     -28.712 -32.285  13.379  1.00  0.00     0.138 C 
ATOM      5  C   UNL     1     -27.810 -33.536  13.624  1.00  0.00     0.115 C 
ATOM      6  O   UNL     1     -29.654 -32.133  14.452  1.00  0.00    -0.345 OA
ATOM      7  C   UNL     1     -28.720 -34.793  13.725  1.00  0.00     0.167 C 
ATOM      8  C   UNL     1     -29.774 -34.594  14.813  1.00  0.00     0.201 C 
BRANCH   5   9
ATOM      9  N   UNL     1     -26.976 -33.287  14.853  1.00  0.00    -0.300 NA
ATOM     10  H   UNL     1     -26.589 -32.344  14.798  1.00  0.00     0.123 HD
BRANCH   9  11
ATOM     11  C   UNL     1     -25.880 -34.259  15.074  1.00  0.00     0.109 C 
ATOM     12  C   UNL     1     -24.778 -33.985  14.106  1.00  0.00    -0.001 C 
ATOM     13  C   UNL     1     -25.408 -34.396  16.557  1.00  0.00     0.167 C 
ATOM     14  C   UNL     1     -23.577 -33.487  14.411  1.00  0.00    -0.016 C 
ATOM     15  C   UNL     1     -24.056 -33.758  16.957  1.00  0.00     0.177 C 
ATOM     16  C   UNL     1     -23.157 -33.204  15.831  1.00  0.00     0.174 C 
BRANCH  13  17
ATOM     17  O   UNL     1     -26.433 -33.984  17.485  1.00  0.00    -0.388 OA
ATOM     18  H   UNL     1     -26.131 -33.175  17.932  1.00  0.00     0.211 HD
ENDBRANCH  13  17
BRANCH  14  19
ATOM     19  C   UNL     1     -22.559 -33.095  13.368  1.00  0.00     0.189 C 
BRANCH  19  20
ATOM     20  O   UNL     1     -21.287 -32.862  13.961  1.00  0.00    -0.392 OA
ATOM     21  H   UNL     1     -20.621 -33.099  13.295  1.00  0.00     0.211 HD
ENDBRANCH  19  20
ENDBRANCH  14  19
BRANCH  15  22
ATOM     22  O   UNL     1     -23.298 -34.744  17.708  1.00  0.00    -0.387 OA
ATOM     23  H   UNL     1     -23.911 -35.240  18.280  1.00  0.00     0.211 HD
ENDBRANCH  15  22
BRANCH  16  24
ATOM     24  O   UNL     1     -22.990 -31.788  15.939  1.00  0.00    -0.386 OA
ATOM     25  H   UNL     1     -23.864 -31.371  15.997  1.00  0.00     0.211 HD
ENDBRANCH  16  24
ENDBRANCH   9  11
ENDBRANCH   5   9
BRANCH   7  26
ATOM     26  O   UNL     1     -29.327 -35.075  12.459  1.00  0.00    -0.388 OA
ATOM     27  H   UNL     1     -30.089 -34.480  12.348  1.00  0.00     0.211 HD
ENDBRANCH   7  26
BRANCH   8  28
ATOM     28  O   UNL     1     -29.153 -34.692  16.104  1.00  0.00    -0.385 OA
ATOM     29  H   UNL     1     -29.873 -34.874  16.748  1.00  0.00     0.211 HD
ENDBRANCH   8  28
ENDBRANCH   1   2
BRANCH   1  30
ATOM     30  C   UNL     1     -31.203 -31.823  16.472  1.00  0.00     0.184 C 
ATOM     31  C   UNL     1     -30.374 -32.158  17.726  1.00  0.00     0.178 C 
ATOM     32  C   UNL     1     -32.582 -31.274  16.887  1.00  0.00     0.180 C 
ATOM     33  O   UNL     1     -31.078 -33.125  18.520  1.00  0.00    -0.341 OA
ATOM     34  C   UNL     1     -33.303 -32.288  17.795  1.00  0.00     0.202 C 
ATOM     35  C   UNL     1     -32.386 -32.770  18.955  1.00  0.00     0.282 C 
BRANCH  31  36
ATOM     36  C   UNL     1     -29.860 -30.969  18.553  1.00  0.00     0.191 C 
BRANCH  36  37
ATOM     37  O   UNL     1     -29.141 -31.388  19.709  1.00  0.00    -0.394 OA
ATOM     38  H   UNL     1     -28.794 -32.283  19.552  1.00  0.00     0.210 HD
ENDBRANCH  36  37
ENDBRANCH  31  36
BRANCH  32  39
ATOM     39  O   UNL     1     -32.419 -29.986  17.484  1.00  0.00    -0.387 OA
ATOM     40  H   UNL     1     -31.616 -29.558  17.139  1.00  0.00     0.211 HD
ENDBRANCH  32  39
BRANCH  34  41
ATOM     41  O   UNL     1     -33.743 -33.394  16.981  1.00  0.00    -0.385 OA
ATOM     42  H   UNL     1     -33.561 -34.190  17.521  1.00  0.00     0.211 HD
ENDBRANCH  34  41
BRANCH  35  43
ATOM     43  O   UNL     1     -33.004 -33.926  19.553  1.00  0.00    -0.347 OA
BRANCH  43  44
ATOM     44  C   UNL     1     -34.394 -33.701  19.822  1.00  0.00     0.198 C 
BRANCH  44  45
ATOM     45  C   UNL     1     -34.744 -33.951  21.302  1.00  0.00     0.178 C 
ATOM     46  C   UNL     1     -33.643 -34.779  21.996  1.00  0.00     0.177 C 
ATOM     47  O   UNL     1     -36.056 -34.508  21.520  1.00  0.00    -0.342 OA
ATOM     48  C   UNL     1     -33.778 -36.293  21.725  1.00  0.00     0.179 C 
ATOM     49  C   UNL     1     -36.216 -35.891  21.244  1.00  0.00     0.279 C 
ATOM     50  C   UNL     1     -35.211 -36.762  22.028  1.00  0.00     0.201 C 
BRANCH  46  51
ATOM     51  O   UNL     1     -33.704 -34.516  23.408  1.00  0.00    -0.387 OA
ATOM     52  H   UNL     1     -33.141 -35.185  23.848  1.00  0.00     0.211 HD
ENDBRANCH  46  51
BRANCH  48  53
ATOM     53  O   UNL     1     -33.381 -36.618  20.389  1.00  0.00    -0.387 OA
ATOM     54  H   UNL     1     -34.017 -37.266  20.024  1.00  0.00     0.211 HD
ENDBRANCH  48  53
BRANCH  49  55
ATOM     55  O   UNL     1     -36.103 -36.130  19.859  1.00  0.00    -0.366 OA
ATOM     56  H   UNL     1     -35.713 -37.023  19.797  1.00  0.00     0.213 HD
ENDBRANCH  49  55
BRANCH  50  57
ATOM     57  O   UNL     1     -35.435 -36.668  23.447  1.00  0.00    -0.385 OA
ATOM     58  H   UNL     1     -34.976 -35.877  23.781  1.00  0.00     0.211 HD
ENDBRANCH  50  57
ENDBRANCH  44  45
ENDBRANCH  43  44
ENDBRANCH  35  43
ENDBRANCH   1  30
TORSDOF 22
ENDMDL
MODEL 4
REMARK VINA RESULT:      -5.8      2.019      3.260
REMARK SMILES C[C@H]1O[C@H](O[C@H]2[C@H](O)[C@@H](O)[C@@H](OC[C@H]3O[C@@H](O)[C@H](O)[C@@H](O)[C@@H]3O)O[C@@H]2CO)[C@H](O)[C@@H](O)[C@@H]1N[C@H]1C=C(CO)[C@@H](O)[C@H](O)[C@H]1O
REMARK SMILES IDX 5 1 4 2 1 3 2 4 32 5 3 6 30 7 28 8 33 9 34 11 35 12 43 13
REMARK SMILES IDX 36 14 41 15 39 16 44 17 37 19 38 20 42 22 40 24 31 26 29 28
REMARK SMILES IDX 6 30 25 31 7 32 24 33 9 34 11 35 26 36 27 37 8 39 10 41
REMARK SMILES IDX 12 43 13 44 14 45 22 46 15 47 20 48 16 49 18 50 23 51 21 53
REMARK SMILES IDX 17 55 19 57
REMARK H PARENT 33 10 44 18 38 21 42 23 40 25 31 27 29 29 27 38 8 40 10 42
REMARK H PARENT 23 52 21 54 17 56 19 58
REMARK Flexibility Score: inf
ROOT
ATOM      1  O   UNL     1     -31.815 -34.050  17.015  1.00  0.00    -0.341 OA
ENDROOT
BRANCH   1   2
ATOM      2  C   UNL     1     -33.033 -33.947  17.742  1.00  0.00     0.282 C 
ATOM      3  C   UNL     1     -35.785 -34.957  18.456  1.00  0.00     0.040 C 
ATOM      4  C   UNL     1     -34.477 -35.138  19.239  1.00  0.00     0.138 C 
ATOM      5  C   UNL     1     -34.232 -34.102  20.381  1.00  0.00     0.115 C 
ATOM      6  O   UNL     1     -33.341 -35.190  18.362  1.00  0.00    -0.345 OA
ATOM      7  C   UNL     1     -33.983 -32.707  19.741  1.00  0.00     0.167 C 
ATOM      8  C   UNL     1     -32.826 -32.784  18.745  1.00  0.00     0.201 C 
BRANCH   5   9
ATOM      9  N   UNL     1     -33.092 -34.594  21.234  1.00  0.00    -0.300 NA
ATOM     10  H   UNL     1     -32.437 -35.102  20.638  1.00  0.00     0.123 HD
BRANCH   9  11
ATOM     11  C   UNL     1     -33.489 -35.451  22.375  1.00  0.00     0.109 C 
ATOM     12  C   UNL     1     -34.803 -34.987  22.906  1.00  0.00    -0.001 C 
ATOM     13  C   UNL     1     -33.417 -36.988  22.102  1.00  0.00     0.167 C 
ATOM     14  C   UNL     1     -35.963 -35.640  22.799  1.00  0.00    -0.016 C 
ATOM     15  C   UNL     1     -34.743 -37.757  21.896  1.00  0.00     0.177 C 
ATOM     16  C   UNL     1     -36.065 -37.008  22.174  1.00  0.00     0.174 C 
BRANCH  13  17
ATOM     17  O   UNL     1     -32.503 -37.298  21.029  1.00  0.00    -0.388 OA
ATOM     18  H   UNL     1     -33.024 -37.465  20.226  1.00  0.00     0.211 HD
ENDBRANCH  13  17
BRANCH  14  19
ATOM     19  C   UNL     1     -37.284 -35.049  23.228  1.00  0.00     0.189 C 
BRANCH  19  20
ATOM     20  O   UNL     1     -37.896 -34.342  22.156  1.00  0.00    -0.392 OA
ATOM     21  H   UNL     1     -38.328 -33.564  22.545  1.00  0.00     0.211 HD
ENDBRANCH  19  20
ENDBRANCH  14  19
BRANCH  15  22
ATOM     22  O   UNL     1     -34.707 -38.948  22.726  1.00  0.00    -0.387 OA
ATOM     23  H   UNL     1     -35.478 -38.939  23.321  1.00  0.00     0.211 HD
ENDBRANCH  15  22
BRANCH  16  24
ATOM     24  O   UNL     1     -36.848 -36.863  20.987  1.00  0.00    -0.386 OA
ATOM     25  H   UNL     1     -36.253 -36.784  20.224  1.00  0.00     0.211 HD
ENDBRANCH  16  24
ENDBRANCH   9  11
ENDBRANCH   5   9
BRANCH   7  26
ATOM     26  O   UNL     1     -35.175 -32.223  19.114  1.00  0.00    -0.388 OA
ATOM     27  H   UNL     1     -35.776 -31.903  19.811  1.00  0.00     0.211 HD
ENDBRANCH   7  26
BRANCH   8  28
ATOM     28  O   UNL     1     -31.586 -32.901  19.461  1.00  0.00    -0.385 OA
ATOM     29  H   UNL     1     -30.907 -33.166  18.802  1.00  0.00     0.211 HD
ENDBRANCH   8  28
ENDBRANCH   1   2
BRANCH   1  30
ATOM     30  C   UNL     1     -31.702 -33.262  15.824  1.00  0.00     0.184 C 
ATOM     31  C   UNL     1     -31.338 -34.294  14.740  1.00  0.00     0.178 C 
ATOM     32  C   UNL     1     -30.587 -32.205  15.938  1.00  0.00     0.180 C 
ATOM     33  O   UNL     1     -30.089 -34.918  15.076  1.00  0.00    -0.341 OA
ATOM     34  C   UNL     1     -29.239 -32.888  16.231  1.00  0.00     0.202 C 
ATOM     35  C   UNL     1     -28.966 -34.061  15.245  1.00  0.00     0.282 C 
BRANCH  31  36
ATOM     36  C   UNL     1     -31.388 -33.811  13.282  1.00  0.00     0.191 C 
BRANCH  36  37
ATOM     37  O   UNL     1     -30.396 -34.435  12.474  1.00  0.00    -0.394 OA
ATOM     38  H   UNL     1     -29.562 -34.467  12.974  1.00  0.00     0.210 HD
ENDBRANCH  36  37
ENDBRANCH  31  36
BRANCH  32  39
ATOM     39  O   UNL     1     -30.576 -31.399  14.758  1.00  0.00    -0.387 OA
ATOM     40  H   UNL     1     -31.461 -31.388  14.354  1.00  0.00     0.211 HD
ENDBRANCH  32  39
BRANCH  34  41
ATOM     41  O   UNL     1     -29.248 -33.346  17.598  1.00  0.00    -0.385 OA
ATOM     42  H   UNL     1     -29.724 -34.202  17.573  1.00  0.00     0.211 HD
ENDBRANCH  34  41
BRANCH  35  43
ATOM     43  O   UNL     1     -27.870 -34.834  15.773  1.00  0.00    -0.347 OA
BRANCH  43  44
ATOM     44  C   UNL     1     -26.615 -34.413  15.222  1.00  0.00     0.198 C 
BRANCH  44  45
ATOM     45  C   UNL     1     -25.706 -33.768  16.285  1.00  0.00     0.178 C 
ATOM     46  C   UNL     1     -25.601 -32.243  16.070  1.00  0.00     0.177 C 
ATOM     47  O   UNL     1     -24.408 -34.384  16.415  1.00  0.00    -0.342 OA
ATOM     48  C   UNL     1     -24.572 -31.866  14.983  1.00  0.00     0.179 C 
ATOM     49  C   UNL     1     -23.455 -34.081  15.409  1.00  0.00     0.279 C 
ATOM     50  C   UNL     1     -23.228 -32.561  15.259  1.00  0.00     0.201 C 
BRANCH  46  51
ATOM     51  O   UNL     1     -25.252 -31.635  17.324  1.00  0.00    -0.387 OA
ATOM     52  H   UNL     1     -24.287 -31.755  17.441  1.00  0.00     0.211 HD
ENDBRANCH  46  51
BRANCH  48  53
ATOM     53  O   UNL     1     -25.069 -32.162  13.673  1.00  0.00    -0.387 OA
ATOM     54  H   UNL     1     -26.024 -31.954  13.649  1.00  0.00     0.211 HD
ENDBRANCH  48  53
BRANCH  49  55
ATOM     55  O   UNL     1     -23.845 -34.647  14.178  1.00  0.00    -0.366 OA
ATOM     56  H   UNL     1     -24.164 -35.540  14.411  1.00  0.00     0.213 HD
ENDBRANCH  49  55
BRANCH  50  57
ATOM     57  O   UNL     1     -22.655 -31.998  16.453  1.00  0.00    -0.385 OA
ATOM     58  H   UNL     1     -23.260 -31.314  16.792  1.00  0.00     0.211 HD
ENDBRANCH  50  57
ENDBRANCH  44  45
ENDBRANCH  43  44
ENDBRANCH  35  43
ENDBRANCH   1  30
TORSDOF 22
ENDMDL
MODEL 5
REMARK VINA RESULT:      -5.7      4.361     10.248
REMARK SMILES C[C@H]1O[C@H](O[C@H]2[C@H](O)[C@@H](O)[C@@H](OC[C@H]3O[C@@H](O)[C@H](O)[C@@H](O)[C@@H]3O)O[C@@H]2CO)[C@H](O)[C@@H](O)[C@@H]1N[C@H]1C=C(CO)[C@@H](O)[C@H](O)[C@H]1O
REMARK SMILES IDX 5 1 4 2 1 3 2 4 32 5 3 6 30 7 28 8 33 9 34 11 35 12 43 13
REMARK SMILES IDX 36 14 41 15 39 16 44 17 37 19 38 20 42 22 40 24 31 26 29 28
REMARK SMILES IDX 6 30 25 31 7 32 24 33 9 34 11 35 26 36 27 37 8 39 10 41
REMARK SMILES IDX 12 43 13 44 14 45 22 46 15 47 20 48 16 49 18 50 23 51 21 53
REMARK SMILES IDX 17 55 19 57
REMARK H PARENT 33 10 44 18 38 21 42 23 40 25 31 27 29 29 27 38 8 40 10 42
REMARK H PARENT 23 52 21 54 17 56 19 58
REMARK Flexibility Score: inf
ROOT
ATOM      1  O   UNL     1     -28.905 -32.926  17.435  1.00  0.00    -0.341 OA
ENDROOT
BRANCH   1   2
ATOM      2  C   UNL     1     -27.666 -33.569  17.164  1.00  0.00     0.282 C 
ATOM      3  C   UNL     1     -26.048 -35.765  15.871  1.00  0.00     0.040 C 
ATOM      4  C   UNL     1     -26.250 -34.323  15.382  1.00  0.00     0.138 C 
ATOM      5  C   UNL     1     -25.124 -33.317  15.784  1.00  0.00     0.115 C 
ATOM      6  O   UNL     1     -27.535 -33.811  15.767  1.00  0.00    -0.345 OA
ATOM      7  C   UNL     1     -25.178 -33.100  17.322  1.00  0.00     0.167 C 
ATOM      8  C   UNL     1     -26.572 -32.635  17.739  1.00  0.00     0.201 C 
BRANCH   5   9
ATOM      9  N   UNL     1     -25.307 -32.055  14.983  1.00  0.00    -0.300 NA
ATOM     10  H   UNL     1     -26.173 -31.604  15.280  1.00  0.00     0.123 HD
BRANCH   9  11
ATOM     11  C   UNL     1     -25.326 -32.243  13.513  1.00  0.00     0.109 C 
ATOM     12  C   UNL     1     -26.484 -31.499  12.938  1.00  0.00    -0.001 C 
ATOM     13  C   UNL     1     -23.967 -31.966  12.794  1.00  0.00     0.167 C 
ATOM     14  C   UNL     1     -26.408 -30.399  12.185  1.00  0.00    -0.016 C 
ATOM     15  C   UNL     1     -23.824 -30.659  11.979  1.00  0.00     0.177 C 
ATOM     16  C   UNL     1     -25.091 -29.806  11.751  1.00  0.00     0.174 C 
BRANCH  13  17
ATOM     17  O   UNL     1     -22.848 -32.102  13.695  1.00  0.00    -0.388 OA
ATOM     18  H   UNL     1     -22.044 -32.228  13.164  1.00  0.00     0.211 HD
ENDBRANCH  13  17
BRANCH  14  19
ATOM     19  C   UNL     1     -27.620 -29.609  11.756  1.00  0.00     0.189 C 
BRANCH  19  20
ATOM     20  O   UNL     1     -27.863 -28.527  12.647  1.00  0.00    -0.392 OA
ATOM     21  H   UNL     1     -28.102 -27.762  12.098  1.00  0.00     0.211 HD
ENDBRANCH  19  20
ENDBRANCH  14  19
BRANCH  15  22
ATOM     22  O   UNL     1     -23.258 -30.996  10.684  1.00  0.00    -0.387 OA
ATOM     23  H   UNL     1     -23.457 -30.276  10.059  1.00  0.00     0.211 HD
ENDBRANCH  15  22
BRANCH  16  24
ATOM     24  O   UNL     1     -24.985 -28.527  12.382  1.00  0.00    -0.386 OA
ATOM     25  H   UNL     1     -25.036 -27.835  11.703  1.00  0.00     0.211 HD
ENDBRANCH  16  24
ENDBRANCH   9  11
ENDBRANCH   5   9
BRANCH   7  26
ATOM     26  O   UNL     1     -24.803 -34.297  18.011  1.00  0.00    -0.388 OA
ATOM     27  H   UNL     1     -25.519 -34.948  17.902  1.00  0.00     0.211 HD
ENDBRANCH   7  26
BRANCH   8  28
ATOM     28  O   UNL     1     -26.761 -31.269  17.337  1.00  0.00    -0.385 OA
ATOM     29  H   UNL     1     -27.495 -30.914  17.886  1.00  0.00     0.211 HD
ENDBRANCH   8  28
ENDBRANCH   1   2
BRANCH   1  30
ATOM     30  C   UNL     1     -29.959 -33.124  16.486  1.00  0.00     0.184 C 
ATOM     31  C   UNL     1     -29.965 -31.815  15.673  1.00  0.00     0.178 C 
ATOM     32  C   UNL     1     -31.323 -33.318  17.175  1.00  0.00     0.180 C 
ATOM     33  O   UNL     1     -30.245 -30.712  16.548  1.00  0.00    -0.341 OA
ATOM     34  C   UNL     1     -31.649 -32.100  18.057  1.00  0.00     0.202 C 
ATOM     35  C   UNL     1     -31.465 -30.765  17.280  1.00  0.00     0.282 C 
BRANCH  31  36
ATOM     36  C   UNL     1     -30.822 -31.797  14.398  1.00  0.00     0.191 C 
BRANCH  36  37
ATOM     37  O   UNL     1     -30.028 -31.794  13.216  1.00  0.00    -0.394 OA
ATOM     38  H   UNL     1     -29.129 -32.089  13.444  1.00  0.00     0.210 HD
ENDBRANCH  36  37
ENDBRANCH  31  36
BRANCH  32  39
ATOM     39  O   UNL     1     -32.318 -33.592  16.186  1.00  0.00    -0.387 OA
ATOM     40  H   UNL     1     -31.896 -33.890  15.361  1.00  0.00     0.211 HD
ENDBRANCH  32  39
BRANCH  34  41
ATOM     41  O   UNL     1     -30.804 -32.146  19.225  1.00  0.00    -0.385 OA
ATOM     42  H   UNL     1     -30.598 -33.095  19.348  1.00  0.00     0.211 HD
ENDBRANCH  34  41
BRANCH  35  43
ATOM     43  O   UNL     1     -31.475 -29.691  18.240  1.00  0.00    -0.347 OA
BRANCH  43  44
ATOM     44  C   UNL     1     -31.859 -28.448  17.638  1.00  0.00     0.198 C 
BRANCH  44  45
ATOM     45  C   UNL     1     -30.728 -27.403  17.701  1.00  0.00     0.178 C 
ATOM     46  C   UNL     1     -31.291 -25.973  17.571  1.00  0.00     0.177 C 
ATOM     47  O   UNL     1     -29.643 -27.641  16.781  1.00  0.00    -0.342 OA
ATOM     48  C   UNL     1     -31.559 -25.571  16.104  1.00  0.00     0.179 C 
ATOM     49  C   UNL     1     -29.877 -27.314  15.421  1.00  0.00     0.279 C 
ATOM     50  C   UNL     1     -30.316 -25.845  15.242  1.00  0.00     0.201 C 
BRANCH  46  51
ATOM     51  O   UNL     1     -30.356 -25.064  18.175  1.00  0.00    -0.387 OA
ATOM     52  H   UNL     1     -29.462 -25.432  18.025  1.00  0.00     0.211 HD
ENDBRANCH  46  51
BRANCH  48  53
ATOM     53  O   UNL     1     -32.722 -26.230  15.590  1.00  0.00    -0.387 OA
ATOM     54  H   UNL     1     -32.651 -26.271  14.615  1.00  0.00     0.211 HD
ENDBRANCH  48  53
BRANCH  49  55
ATOM     55  O   UNL     1     -30.833 -28.188  14.864  1.00  0.00    -0.366 OA
ATOM     56  H   UNL     1     -30.322 -28.982  14.617  1.00  0.00     0.213 HD
ENDBRANCH  49  55
BRANCH  50  57
ATOM     57  O   UNL     1     -29.273 -24.935  15.637  1.00  0.00    -0.385 OA
ATOM     58  H   UNL     1     -29.658 -24.046  15.732  1.00  0.00     0.211 HD
ENDBRANCH  50  57
ENDBRANCH  44  45
ENDBRANCH  43  44
ENDBRANCH  35  43
ENDBRANCH   1  30
TORSDOF 22
ENDMDL
MODEL 6
REMARK VINA RESULT:      -5.7      1.320      1.524
REMARK SMILES C[C@H]1O[C@H](O[C@H]2[C@H](O)[C@@H](O)[C@@H](OC[C@H]3O[C@@H](O)[C@H](O)[C@@H](O)[C@@H]3O)O[C@@H]2CO)[C@H](O)[C@@H](O)[C@@H]1N[C@H]1C=C(CO)[C@@H](O)[C@H](O)[C@H]1O
REMARK SMILES IDX 5 1 4 2 1 3 2 4 32 5 3 6 30 7 28 8 33 9 34 11 35 12 43 13
REMARK SMILES IDX 36 14 41 15 39 16 44 17 37 19 38 20 42 22 40 24 31 26 29 28
REMARK SMILES IDX 6 30 25 31 7 32 24 33 9 34 11 35 26 36 27 37 8 39 10 41
REMARK SMILES IDX 12 43 13 44 14 45 22 46 15 47 20 48 16 49 18 50 23 51 21 53
REMARK SMILES IDX 17 55 19 57
REMARK H PARENT 33 10 44 18 38 21 42 23 40 25 31 27 29 29 27 38 8 40 10 42
REMARK H PARENT 23 52 21 54 17 56 19 58
REMARK Flexibility Score: inf
ROOT
ATOM      1  O   UNL     1     -30.530 -33.130  17.681  1.00  0.00    -0.341 OA
ENDROOT
BRANCH   1   2
ATOM      2  C   UNL     1     -31.810 -33.524  17.206  1.00  0.00     0.282 C 
ATOM      3  C   UNL     1     -33.622 -35.463  15.769  1.00  0.00     0.040 C 
ATOM      4  C   UNL     1     -33.419 -35.300  17.282  1.00  0.00     0.138 C 
ATOM      5  C   UNL     1     -34.464 -34.391  18.003  1.00  0.00     0.115 C 
ATOM      6  O   UNL     1     -32.085 -34.866  17.591  1.00  0.00    -0.345 OA
ATOM      7  C   UNL     1     -34.253 -32.923  17.534  1.00  0.00     0.167 C 
ATOM      8  C   UNL     1     -32.810 -32.492  17.788  1.00  0.00     0.201 C 
BRANCH   5   9
ATOM      9  N   UNL     1     -34.317 -34.583  19.489  1.00  0.00    -0.300 NA
ATOM     10  H   UNL     1     -33.900 -35.499  19.659  1.00  0.00     0.123 HD
BRANCH   9  11
ATOM     11  C   UNL     1     -35.573 -34.460  20.264  1.00  0.00     0.109 C 
ATOM     12  C   UNL     1     -35.925 -35.788  20.845  1.00  0.00    -0.001 C 
ATOM     13  C   UNL     1     -35.601 -33.285  21.294  1.00  0.00     0.167 C 
ATOM     14  C   UNL     1     -35.874 -36.113  22.139  1.00  0.00    -0.016 C 
ATOM     15  C   UNL     1     -35.464 -33.626  22.797  1.00  0.00     0.177 C 
ATOM     16  C   UNL     1     -35.513 -35.114  23.209  1.00  0.00     0.174 C 
BRANCH  13  17
ATOM     17  O   UNL     1     -34.664 -32.245  20.944  1.00  0.00    -0.388 OA
ATOM     18  H   UNL     1     -33.771 -32.550  21.176  1.00  0.00     0.211 HD
ENDBRANCH  13  17
BRANCH  14  19
ATOM     19  C   UNL     1     -36.101 -37.517  22.646  1.00  0.00     0.189 C 
BRANCH  19  20
ATOM     20  O   UNL     1     -37.372 -37.631  23.274  1.00  0.00    -0.392 OA
ATOM     21  H   UNL     1     -37.214 -38.007  24.156  1.00  0.00     0.211 HD
ENDBRANCH  19  20
ENDBRANCH  14  19
BRANCH  15  22
ATOM     22  O   UNL     1     -36.505 -32.915  23.517  1.00  0.00    -0.387 OA
ATOM     23  H   UNL     1     -36.119 -32.526  24.322  1.00  0.00     0.211 HD
ENDBRANCH  15  22
BRANCH  16  24
ATOM     24  O   UNL     1     -34.275 -35.545  23.777  1.00  0.00    -0.386 OA
ATOM     25  H   UNL     1     -34.186 -35.166  24.666  1.00  0.00     0.211 HD
ENDBRANCH  16  24
ENDBRANCH   9  11
ENDBRANCH   5   9
BRANCH   7  26
ATOM     26  O   UNL     1     -34.601 -32.784  16.152  1.00  0.00    -0.388 OA
ATOM     27  H   UNL     1     -35.497 -32.407  16.101  1.00  0.00     0.211 HD
ENDBRANCH   7  26
BRANCH   8  28
ATOM     28  O   UNL     1     -32.614 -32.283  19.195  1.00  0.00    -0.385 OA
ATOM     29  H   UNL     1     -31.681 -32.526  19.387  1.00  0.00     0.211 HD
ENDBRANCH   8  28
ENDBRANCH   1   2
BRANCH   1  30
ATOM     30  C   UNL     1     -30.107 -31.795  17.375  1.00  0.00     0.184 C 
ATOM     31  C   UNL     1     -29.441 -31.934  15.993  1.00  0.00     0.178 C 
ATOM     32  C   UNL     1     -29.084 -31.268  18.399  1.00  0.00     0.180 C 
ATOM     33  O   UNL     1     -28.323 -32.830  16.090  1.00  0.00    -0.341 OA
ATOM     34  C   UNL     1     -27.857 -32.196  18.447  1.00  0.00     0.202 C 
ATOM     35  C   UNL     1     -27.304 -32.488  17.023  1.00  0.00     0.282 C 
BRANCH  31  36
ATOM     36  C   UNL     1     -29.097 -30.629  15.258  1.00  0.00     0.191 C 
BRANCH  36  37
ATOM     37  O   UNL     1     -28.414 -30.867  14.031  1.00  0.00    -0.394 OA
ATOM     38  H   UNL     1     -29.070 -31.088  13.347  1.00  0.00     0.210 HD
ENDBRANCH  36  37
ENDBRANCH  31  36
BRANCH  32  39
ATOM     39  O   UNL     1     -28.763 -29.910  18.091  1.00  0.00    -0.387 OA
ATOM     40  H   UNL     1     -27.798 -29.798  18.041  1.00  0.00     0.211 HD
ENDBRANCH  32  39
BRANCH  34  41
ATOM     41  O   UNL     1     -28.235 -33.414  19.121  1.00  0.00    -0.385 OA
ATOM     42  H   UNL     1     -28.095 -34.122  18.459  1.00  0.00     0.211 HD
ENDBRANCH  34  41
BRANCH  35  43
ATOM     43  O   UNL     1     -26.382 -33.591  17.126  1.00  0.00    -0.347 OA
BRANCH  43  44
ATOM     44  C   UNL     1     -25.309 -33.299  18.029  1.00  0.00     0.198 C 
BRANCH  44  45
ATOM     45  C   UNL     1     -24.215 -32.439  17.367  1.00  0.00     0.178 C 
ATOM     46  C   UNL     1     -24.276 -32.557  15.829  1.00  0.00     0.177 C 
ATOM     47  O   UNL     1     -22.884 -32.671  17.872  1.00  0.00    -0.342 OA
ATOM     48  C   UNL     1     -23.574 -33.827  15.303  1.00  0.00     0.179 C 
ATOM     49  C   UNL     1     -22.231 -33.850  17.431  1.00  0.00     0.279 C 
ATOM     50  C   UNL     1     -22.158 -33.935  15.892  1.00  0.00     0.201 C 
BRANCH  46  51
ATOM     51  O   UNL     1     -23.675 -31.381  15.263  1.00  0.00    -0.387 OA
ATOM     52  H   UNL     1     -24.164 -30.611  15.618  1.00  0.00     0.211 HD
ENDBRANCH  46  51
BRANCH  48  53
ATOM     53  O   UNL     1     -24.354 -34.998  15.568  1.00  0.00    -0.387 OA
ATOM     54  H   UNL     1     -25.262 -34.848  15.237  1.00  0.00     0.211 HD
ENDBRANCH  48  53
BRANCH  49  55
ATOM     55  O   UNL     1     -22.869 -34.991  17.960  1.00  0.00    -0.366 OA
ATOM     56  H   UNL     1     -22.382 -35.744  17.574  1.00  0.00     0.213 HD
ENDBRANCH  49  55
BRANCH  50  57
ATOM     57  O   UNL     1     -21.352 -32.874  15.348  1.00  0.00    -0.385 OA
ATOM     58  H   UNL     1     -21.922 -32.098  15.198  1.00  0.00     0.211 HD
ENDBRANCH  50  57
ENDBRANCH  44  45
ENDBRANCH  43  44
ENDBRANCH  35  43
ENDBRANCH   1  30
TORSDOF 22
ENDMDL
MODEL 7
REMARK VINA RESULT:      -5.6      2.940     10.390
REMARK SMILES C[C@H]1O[C@H](O[C@H]2[C@H](O)[C@@H](O)[C@@H](OC[C@H]3O[C@@H](O)[C@H](O)[C@@H](O)[C@@H]3O)O[C@@H]2CO)[C@H](O)[C@@H](O)[C@@H]1N[C@H]1C=C(CO)[C@@H](O)[C@H](O)[C@H]1O
REMARK SMILES IDX 5 1 4 2 1 3 2 4 32 5 3 6 30 7 28 8 33 9 34 11 35 12 43 13
REMARK SMILES IDX 36 14 41 15 39 16 44 17 37 19 38 20 42 22 40 24 31 26 29 28
REMARK SMILES IDX 6 30 25 31 7 32 24 33 9 34 11 35 26 36 27 37 8 39 10 41
REMARK SMILES IDX 12 43 13 44 14 45 22 46 15 47 20 48 16 49 18 50 23 51 21 53
REMARK SMILES IDX 17 55 19 57
REMARK H PARENT 33 10 44 18 38 21 42 23 40 25 31 27 29 29 27 38 8 40 10 42
REMARK H PARENT 23 52 21 54 17 56 19 58
REMARK Flexibility Score: inf
ROOT
ATOM      1  O   UNL     1     -30.636 -34.588  15.291  1.00  0.00    -0.341 OA
ENDROOT
BRANCH   1   2
ATOM      2  C   UNL     1     -29.750 -34.660  14.180  1.00  0.00     0.282 C 
ATOM      3  C   UNL     1     -28.685 -33.590  11.568  1.00  0.00     0.040 C 
ATOM      4  C   UNL     1     -28.089 -33.425  12.973  1.00  0.00     0.138 C 
ATOM      5  C   UNL     1     -26.976 -34.452  13.352  1.00  0.00     0.115 C 
ATOM      6  O   UNL     1     -29.112 -33.404  13.980  1.00  0.00    -0.345 OA
ATOM      7  C   UNL     1     -27.624 -35.859  13.489  1.00  0.00     0.167 C 
ATOM      8  C   UNL     1     -28.768 -35.815  14.501  1.00  0.00     0.201 C 
BRANCH   5   9
ATOM      9  N   UNL     1     -26.292 -33.972  14.605  1.00  0.00    -0.300 NA
ATOM     10  H   UNL     1     -26.006 -33.002  14.467  1.00  0.00     0.123 HD
BRANCH   9  11
ATOM     11  C   UNL     1     -25.121 -34.776  15.027  1.00  0.00     0.109 C 
ATOM     12  C   UNL     1     -23.949 -34.424  14.174  1.00  0.00    -0.001 C 
ATOM     13  C   UNL     1     -24.825 -34.755  16.561  1.00  0.00     0.167 C 
ATOM     14  C   UNL     1     -22.866 -33.754  14.574  1.00  0.00    -0.016 C 
ATOM     15  C   UNL     1     -23.621 -33.921  17.061  1.00  0.00     0.177 C 
ATOM     16  C   UNL     1     -22.662 -33.327  16.006  1.00  0.00     0.174 C 
BRANCH  13  17
ATOM     17  O   UNL     1     -26.000 -34.420  17.328  1.00  0.00    -0.388 OA
ATOM     18  H   UNL     1     -25.979 -33.467  17.516  1.00  0.00     0.211 HD
ENDBRANCH  13  17
BRANCH  14  19
ATOM     19  C   UNL     1     -21.781 -33.301  13.627  1.00  0.00     0.189 C 
BRANCH  19  20
ATOM     20  O   UNL     1     -22.231 -33.348  12.278  1.00  0.00    -0.392 OA
ATOM     21  H   UNL     1     -22.601 -32.473  12.077  1.00  0.00     0.211 HD
ENDBRANCH  19  20
ENDBRANCH  14  19
BRANCH  15  22
ATOM     22  O   UNL     1     -22.848 -34.748  17.971  1.00  0.00    -0.387 OA
ATOM     23  H   UNL     1     -21.911 -34.488  17.910  1.00  0.00     0.211 HD
ENDBRANCH  15  22
BRANCH  16  24
ATOM     24  O   UNL     1     -22.684 -31.898  16.019  1.00  0.00    -0.386 OA
ATOM     25  H   UNL     1     -23.263 -31.597  16.737  1.00  0.00     0.211 HD
ENDBRANCH  16  24
ENDBRANCH   9  11
ENDBRANCH   5   9
BRANCH   7  26
ATOM     26  O   UNL     1     -28.078 -36.328  12.215  1.00  0.00    -0.388 OA
ATOM     27  H   UNL     1     -27.885 -37.281  12.155  1.00  0.00     0.211 HD
ENDBRANCH   7  26
BRANCH   8  28
ATOM     28  O   UNL     1     -28.228 -35.713  15.828  1.00  0.00    -0.385 OA
ATOM     29  H   UNL     1     -28.995 -35.651  16.439  1.00  0.00     0.211 HD
ENDBRANCH   8  28
ENDBRANCH   1   2
BRANCH   1  30
ATOM     30  C   UNL     1     -31.537 -33.475  15.329  1.00  0.00     0.184 C 
ATOM     31  C   UNL     1     -31.343 -32.900  16.746  1.00  0.00     0.178 C 
ATOM     32  C   UNL     1     -33.001 -33.915  15.138  1.00  0.00     0.180 C 
ATOM     33  O   UNL     1     -31.697 -33.897  17.717  1.00  0.00    -0.341 OA
ATOM     34  C   UNL     1     -33.394 -34.931  16.225  1.00  0.00     0.202 C 
ATOM     35  C   UNL     1     -33.018 -34.424  17.646  1.00  0.00     0.282 C 
BRANCH  31  36
ATOM     36  C   UNL     1     -31.988 -31.534  17.031  1.00  0.00     0.191 C 
BRANCH  36  37
ATOM     37  O   UNL     1     -32.346 -31.385  18.401  1.00  0.00    -0.394 OA
ATOM     38  H   UNL     1     -33.173 -31.872  18.561  1.00  0.00     0.210 HD
ENDBRANCH  36  37
ENDBRANCH  31  36
BRANCH  32  39
ATOM     39  O   UNL     1     -33.841 -32.760  15.103  1.00  0.00    -0.387 OA
ATOM     40  H   UNL     1     -33.977 -32.474  14.183  1.00  0.00     0.211 HD
ENDBRANCH  32  39
BRANCH  34  41
ATOM     41  O   UNL     1     -32.747 -36.186  15.929  1.00  0.00    -0.385 OA
ATOM     42  H   UNL     1     -32.415 -36.507  16.793  1.00  0.00     0.211 HD
ENDBRANCH  34  41
BRANCH  35  43
ATOM     43  O   UNL     1     -33.120 -35.538  18.554  1.00  0.00    -0.347 OA
BRANCH  43  44
ATOM     44  C   UNL     1     -34.330 -35.486  19.319  1.00  0.00     0.198 C 
BRANCH  44  45
ATOM     45  C   UNL     1     -34.167 -36.144  20.703  1.00  0.00     0.178 C 
ATOM     46  C   UNL     1     -35.490 -36.101  21.495  1.00  0.00     0.177 C 
ATOM     47  O   UNL     1     -33.058 -35.641  21.477  1.00  0.00    -0.342 OA
ATOM     48  C   UNL     1     -35.723 -34.740  22.188  1.00  0.00     0.179 C 
ATOM     49  C   UNL     1     -33.234 -34.376  22.094  1.00  0.00     0.279 C 
ATOM     50  C   UNL     1     -34.482 -34.339  23.002  1.00  0.00     0.201 C 
BRANCH  46  51
ATOM     51  O   UNL     1     -35.469 -37.160  22.466  1.00  0.00    -0.387 OA
ATOM     52  H   UNL     1     -36.110 -36.919  23.166  1.00  0.00     0.211 HD
ENDBRANCH  46  51
BRANCH  48  53
ATOM     53  O   UNL     1     -36.090 -33.732  21.240  1.00  0.00    -0.387 OA
ATOM     54  H   UNL     1     -36.690 -34.131  20.578  1.00  0.00     0.211 HD
ENDBRANCH  48  53
BRANCH  49  55
ATOM     55  O   UNL     1     -33.301 -33.360  21.119  1.00  0.00    -0.366 OA
ATOM     56  H   UNL     1     -32.715 -32.657  21.459  1.00  0.00     0.213 HD
ENDBRANCH  49  55
BRANCH  50  57
ATOM     57  O   UNL     1     -34.348 -35.245  24.113  1.00  0.00    -0.385 OA
ATOM     58  H   UNL     1     -34.121 -36.127  23.766  1.00  0.00     0.211 HD
ENDBRANCH  50  57
ENDBRANCH  44  45
ENDBRANCH  43  44
ENDBRANCH  35  43
ENDBRANCH   1  30
TORSDOF 22
ENDMDL
MODEL 8
REMARK VINA RESULT:      -5.6      3.143     10.687
REMARK SMILES C[C@H]1O[C@H](O[C@H]2[C@H](O)[C@@H](O)[C@@H](OC[C@H]3O[C@@H](O)[C@H](O)[C@@H](O)[C@@H]3O)O[C@@H]2CO)[C@H](O)[C@@H](O)[C@@H]1N[C@H]1C=C(CO)[C@@H](O)[C@H](O)[C@H]1O
REMARK SMILES IDX 5 1 4 2 1 3 2 4 32 5 3 6 30 7 28 8 33 9 34 11 35 12 43 13
REMARK SMILES IDX 36 14 41 15 39 16 44 17 37 19 38 20 42 22 40 24 31 26 29 28
REMARK SMILES IDX 6 30 25 31 7 32 24 33 9 34 11 35 26 36 27 37 8 39 10 41
REMARK SMILES IDX 12 43 13 44 14 45 22 46 15 47 20 48 16 49 18 50 23 51 21 53
REMARK SMILES IDX 17 55 19 57
REMARK H PARENT 33 10 44 18 38 21 42 23 40 25 31 27 29 29 27 38 8 40 10 42
REMARK H PARENT 23 52 21 54 17 56 19 58
REMARK Flexibility Score: inf
ROOT
ATOM      1  O   UNL     1     -29.053 -33.231  17.118  1.00  0.00    -0.341 OA
ENDROOT
BRANCH   1   2
ATOM      2  C   UNL     1     -28.496 -33.873  15.978  1.00  0.00     0.282 C 
ATOM      3  C   UNL     1     -27.989 -34.027  13.008  1.00  0.00     0.040 C 
ATOM      4  C   UNL     1     -27.040 -33.527  14.106  1.00  0.00     0.138 C 
ATOM      5  C   UNL     1     -26.020 -34.582  14.639  1.00  0.00     0.115 C 
ATOM      6  O   UNL     1     -27.762 -32.937  15.198  1.00  0.00    -0.345 OA
ATOM      7  C   UNL     1     -26.800 -35.675  15.422  1.00  0.00     0.167 C 
ATOM      8  C   UNL     1     -27.632 -35.035  16.532  1.00  0.00     0.201 C 
BRANCH   5   9
ATOM      9  N   UNL     1     -24.982 -33.866  15.463  1.00  0.00    -0.300 NA
ATOM     10  H   UNL     1     -25.346 -32.947  15.717  1.00  0.00     0.123 HD
BRANCH   9  11
ATOM     11  C   UNL     1     -23.661 -33.710  14.809  1.00  0.00     0.109 C 
ATOM     12  C   UNL     1     -23.533 -34.716  13.715  1.00  0.00    -0.001 C 
ATOM     13  C   UNL     1     -23.306 -32.250  14.379  1.00  0.00     0.167 C 
ATOM     14  C   UNL     1     -23.532 -34.451  12.407  1.00  0.00    -0.016 C 
ATOM     15  C   UNL     1     -23.374 -31.894  12.874  1.00  0.00     0.177 C 
ATOM     16  C   UNL     1     -23.587 -33.044  11.867  1.00  0.00     0.174 C 
BRANCH  13  17
ATOM     17  O   UNL     1     -24.043 -31.273  15.143  1.00  0.00    -0.388 OA
ATOM     18  H   UNL     1     -24.822 -31.711  15.526  1.00  0.00     0.211 HD
ENDBRANCH  13  17
BRANCH  14  19
ATOM     19  C   UNL     1     -23.546 -35.528  11.348  1.00  0.00     0.189 C 
BRANCH  19  20
ATOM     20  O   UNL     1     -24.877 -35.829  10.948  1.00  0.00    -0.392 OA
ATOM     21  H   UNL     1     -25.153 -35.123  10.341  1.00  0.00     0.211 HD
ENDBRANCH  19  20
ENDBRANCH  14  19
BRANCH  15  22
ATOM     22  O   UNL     1     -22.151 -31.195  12.522  1.00  0.00    -0.387 OA
ATOM     23  H   UNL     1     -22.384 -30.379  12.042  1.00  0.00     0.211 HD
ENDBRANCH  15  22
BRANCH  16  24
ATOM     24  O   UNL     1     -24.831 -32.916  11.174  1.00  0.00    -0.386 OA
ATOM     25  H   UNL     1     -24.773 -32.169  10.557  1.00  0.00     0.211 HD
ENDBRANCH  16  24
ENDBRANCH   9  11
ENDBRANCH   5   9
BRANCH   7  26
ATOM     26  O   UNL     1     -27.620 -36.439  14.532  1.00  0.00    -0.388 OA
ATOM     27  H   UNL     1     -27.042 -37.025  14.012  1.00  0.00     0.211 HD
ENDBRANCH   7  26
BRANCH   8  28
ATOM     28  O   UNL     1     -26.766 -34.608  17.594  1.00  0.00    -0.385 OA
ATOM     29  H   UNL     1     -26.065 -35.292  17.677  1.00  0.00     0.211 HD
ENDBRANCH   8  28
ENDBRANCH   1   2
BRANCH   1  30
ATOM     30  C   UNL     1     -29.704 -31.973  16.900  1.00  0.00     0.184 C 
ATOM     31  C   UNL     1     -29.790 -31.360  18.310  1.00  0.00     0.178 C 
ATOM     32  C   UNL     1     -31.120 -32.153  16.319  1.00  0.00     0.180 C 
ATOM     33  O   UNL     1     -30.573 -32.216  19.156  1.00  0.00    -0.341 OA
ATOM     34  C   UNL     1     -31.974 -33.015  17.266  1.00  0.00     0.202 C 
ATOM     35  C   UNL     1     -31.901 -32.500  18.732  1.00  0.00     0.282 C 
BRANCH  31  36
ATOM     36  C   UNL     1     -30.216 -29.886  18.397  1.00  0.00     0.191 C 
BRANCH  36  37
ATOM     37  O   UNL     1     -29.992 -29.337  19.692  1.00  0.00    -0.394 OA
ATOM     38  H   UNL     1     -30.691 -28.686  19.879  1.00  0.00     0.210 HD
ENDBRANCH  36  37
ENDBRANCH  31  36
BRANCH  32  39
ATOM     39  O   UNL     1     -31.685 -30.870  16.046  1.00  0.00    -0.387 OA
ATOM     40  H   UNL     1     -31.758 -30.734  15.085  1.00  0.00     0.211 HD
ENDBRANCH  32  39
BRANCH  34  41
ATOM     41  O   UNL     1     -31.522 -34.382  17.169  1.00  0.00    -0.385 OA
ATOM     42  H   UNL     1     -30.574 -34.350  17.410  1.00  0.00     0.211 HD
ENDBRANCH  34  41
BRANCH  35  43
ATOM     43  O   UNL     1     -32.451 -33.522  19.586  1.00  0.00    -0.347 OA
BRANCH  43  44
ATOM     44  C   UNL     1     -33.854 -33.326  19.806  1.00  0.00     0.198 C 
BRANCH  44  45
ATOM     45  C   UNL     1     -34.232 -33.485  21.291  1.00  0.00     0.178 C 
ATOM     46  C   UNL     1     -33.274 -34.463  22.003  1.00  0.00     0.177 C 
ATOM     47  O   UNL     1     -35.616 -33.822  21.523  1.00  0.00    -0.342 OA
ATOM     48  C   UNL     1     -33.651 -35.942  21.765  1.00  0.00     0.179 C 
ATOM     49  C   UNL     1     -35.995 -35.167  21.277  1.00  0.00     0.279 C 
ATOM     50  C   UNL     1     -35.139 -36.169  22.079  1.00  0.00     0.201 C 
BRANCH  46  51
ATOM     51  O   UNL     1     -33.287 -34.164  23.408  1.00  0.00    -0.387 OA
ATOM     52  H   UNL     1     -33.343 -35.019  23.882  1.00  0.00     0.211 HD
ENDBRANCH  46  51
BRANCH  48  53
ATOM     53  O   UNL     1     -33.316 -36.354  20.435  1.00  0.00    -0.387 OA
ATOM     54  H   UNL     1     -32.849 -37.213  20.484  1.00  0.00     0.211 HD
ENDBRANCH  48  53
BRANCH  49  55
ATOM     55  O   UNL     1     -35.927 -35.450  19.898  1.00  0.00    -0.366 OA
ATOM     56  H   UNL     1     -36.612 -36.131  19.755  1.00  0.00     0.213 HD
ENDBRANCH  49  55
BRANCH  50  57
ATOM     57  O   UNL     1     -35.338 -36.012  23.496  1.00  0.00    -0.385 OA
ATOM     58  H   UNL     1     -35.005 -36.809  23.946  1.00  0.00     0.211 HD
ENDBRANCH  50  57
ENDBRANCH  44  45
ENDBRANCH  43  44
ENDBRANCH  35  43
ENDBRANCH   1  30
TORSDOF 22
ENDMDL
MODEL 9
REMARK VINA RESULT:      -5.6      1.925      3.581
REMARK SMILES C[C@H]1O[C@H](O[C@H]2[C@H](O)[C@@H](O)[C@@H](OC[C@H]3O[C@@H](O)[C@H](O)[C@@H](O)[C@@H]3O)O[C@@H]2CO)[C@H](O)[C@@H](O)[C@@H]1N[C@H]1C=C(CO)[C@@H](O)[C@H](O)[C@H]1O
REMARK SMILES IDX 5 1 4 2 1 3 2 4 32 5 3 6 30 7 28 8 33 9 34 11 35 12 43 13
REMARK SMILES IDX 36 14 41 15 39 16 44 17 37 19 38 20 42 22 40 24 31 26 29 28
REMARK SMILES IDX 6 30 25 31 7 32 24 33 9 34 11 35 26 36 27 37 8 39 10 41
REMARK SMILES IDX 12 43 13 44 14 45 22 46 15 47 20 48 16 49 18 50 23 51 21 53
REMARK SMILES IDX 17 55 19 57
REMARK H PARENT 33 10 44 18 38 21 42 23 40 25 31 27 29 29 27 38 8 40 10 42
REMARK H PARENT 23 52 21 54 17 56 19 58
REMARK Flexibility Score: inf
ROOT
ATOM      1  O   UNL     1     -33.317 -32.513  16.001  1.00  0.00    -0.341 OA
ENDROOT
BRANCH   1   2
ATOM      2  C   UNL     1     -34.558 -32.147  16.591  1.00  0.00     0.282 C 
ATOM      3  C   UNL     1     -37.567 -32.309  16.748  1.00  0.00     0.040 C 
ATOM      4  C   UNL     1     -36.533 -33.045  17.611  1.00  0.00     0.138 C 
ATOM      5  C   UNL     1     -36.197 -32.366  18.977  1.00  0.00     0.115 C 
ATOM      6  O   UNL     1     -35.327 -33.309  16.878  1.00  0.00    -0.345 OA
ATOM      7  C   UNL     1     -35.435 -31.040  18.698  1.00  0.00     0.167 C 
ATOM      8  C   UNL     1     -34.196 -31.314  17.847  1.00  0.00     0.201 C 
BRANCH   5   9
ATOM      9  N   UNL     1     -35.426 -33.347  19.819  1.00  0.00    -0.300 NA
ATOM     10  H   UNL     1     -34.501 -33.473  19.407  1.00  0.00     0.123 HD
BRANCH   9  11
ATOM     11  C   UNL     1     -36.074 -34.669  19.993  1.00  0.00     0.109 C 
ATOM     12  C   UNL     1     -35.108 -35.742  19.619  1.00  0.00    -0.001 C 
ATOM     13  C   UNL     1     -36.769 -34.886  21.375  1.00  0.00     0.167 C 
ATOM     14  C   UNL     1     -34.526 -36.597  20.464  1.00  0.00    -0.016 C 
ATOM     15  C   UNL     1     -36.075 -35.810  22.405  1.00  0.00     0.177 C 
ATOM     16  C   UNL     1     -34.849 -36.624  21.937  1.00  0.00     0.174 C 
BRANCH  13  17
ATOM     17  O   UNL     1     -37.116 -33.634  22.002  1.00  0.00    -0.388 OA
ATOM     18  H   UNL     1     -37.971 -33.342  21.645  1.00  0.00     0.211 HD
ENDBRANCH  13  17
BRANCH  14  19
ATOM     19  C   UNL     1     -33.446 -37.564  20.043  1.00  0.00     0.189 C 
BRANCH  19  20
ATOM     20  O   UNL     1     -33.393 -38.681  20.923  1.00  0.00    -0.392 OA
ATOM     21  H   UNL     1     -33.549 -39.471  20.380  1.00  0.00     0.211 HD
ENDBRANCH  19  20
ENDBRANCH  14  19
BRANCH  15  22
ATOM     22  O   UNL     1     -37.069 -36.734  22.921  1.00  0.00    -0.387 OA
ATOM     23  H   UNL     1     -37.555 -36.298  23.645  1.00  0.00     0.211 HD
ENDBRANCH  15  22
BRANCH  16  24
ATOM     24  O   UNL     1     -33.661 -36.230  22.628  1.00  0.00    -0.386 OA
ATOM     25  H   UNL     1     -33.489 -36.861  23.345  1.00  0.00     0.211 HD
ENDBRANCH  16  24
ENDBRANCH   9  11
ENDBRANCH   5   9
BRANCH   7  26
ATOM     26  O   UNL     1     -36.298 -30.088  18.067  1.00  0.00    -0.388 OA
ATOM     27  H   UNL     1     -36.129 -30.114  17.108  1.00  0.00     0.211 HD
ENDBRANCH   7  26
BRANCH   8  28
ATOM     28  O   UNL     1     -33.195 -31.956  18.652  1.00  0.00    -0.385 OA
ATOM     29  H   UNL     1     -33.360 -31.677  19.580  1.00  0.00     0.211 HD
ENDBRANCH   8  28
ENDBRANCH   1   2
BRANCH   1  30
ATOM     30  C   UNL     1     -33.128 -33.901  15.699  1.00  0.00     0.184 C 
ATOM     31  C   UNL     1     -32.308 -34.424  16.893  1.00  0.00     0.178 C 
ATOM     32  C   UNL     1     -32.337 -34.101  14.392  1.00  0.00     0.180 C 
ATOM     33  O   UNL     1     -31.055 -33.725  16.954  1.00  0.00    -0.341 OA
ATOM     34  C   UNL     1     -30.967 -33.406  14.491  1.00  0.00     0.202 C 
ATOM     35  C   UNL     1     -30.223 -33.793  15.801  1.00  0.00     0.282 C 
BRANCH  31  36
ATOM     36  C   UNL     1     -32.145 -35.948  17.005  1.00  0.00     0.191 C 
BRANCH  36  37
ATOM     37  O   UNL     1     -33.319 -36.645  16.600  1.00  0.00    -0.394 OA
ATOM     38  H   UNL     1     -33.908 -36.736  17.370  1.00  0.00     0.210 HD
ENDBRANCH  36  37
ENDBRANCH  31  36
BRANCH  32  39
ATOM     39  O   UNL     1     -32.252 -35.497  14.099  1.00  0.00    -0.387 OA
ATOM     40  H   UNL     1     -32.265 -35.638  13.137  1.00  0.00     0.211 HD
ENDBRANCH  32  39
BRANCH  34  41
ATOM     41  O   UNL     1     -31.173 -31.981  14.407  1.00  0.00    -0.385 OA
ATOM     42  H   UNL     1     -32.048 -31.829  14.818  1.00  0.00     0.211 HD
ENDBRANCH  34  41
BRANCH  35  43
ATOM     43  O   UNL     1     -29.123 -32.878  15.970  1.00  0.00    -0.347 OA
BRANCH  43  44
ATOM     44  C   UNL     1     -28.613 -32.907  17.309  1.00  0.00     0.198 C 
BRANCH  44  45
ATOM     45  C   UNL     1     -27.527 -33.985  17.489  1.00  0.00     0.178 C 
ATOM     46  C   UNL     1     -26.545 -33.597  18.614  1.00  0.00     0.177 C 
ATOM     47  O   UNL     1     -26.838 -34.348  16.274  1.00  0.00    -0.342 OA
ATOM     48  C   UNL     1     -25.460 -32.605  18.140  1.00  0.00     0.179 C 
ATOM     49  C   UNL     1     -25.862 -33.435  15.798  1.00  0.00     0.279 C 
ATOM     50  C   UNL     1     -24.785 -33.127  16.861  1.00  0.00     0.201 C 
BRANCH  46  51
ATOM     51  O   UNL     1     -25.939 -34.799  19.117  1.00  0.00    -0.387 OA
ATOM     52  H   UNL     1     -25.046 -34.856  18.721  1.00  0.00     0.211 HD
ENDBRANCH  46  51
BRANCH  48  53
ATOM     53  O   UNL     1     -26.002 -31.292  17.962  1.00  0.00    -0.387 OA
ATOM     54  H   UNL     1     -25.332 -30.738  17.511  1.00  0.00     0.211 HD
ENDBRANCH  48  53
BRANCH  49  55
ATOM     55  O   UNL     1     -26.476 -32.246  15.356  1.00  0.00    -0.366 OA
ATOM     56  H   UNL     1     -25.763 -31.580  15.377  1.00  0.00     0.213 HD
ENDBRANCH  49  55
BRANCH  50  57
ATOM     57  O   UNL     1     -24.023 -34.303  17.190  1.00  0.00    -0.385 OA
ATOM     58  H   UNL     1     -23.510 -34.568  16.406  1.00  0.00     0.211 HD
ENDBRANCH  50  57
ENDBRANCH  44  45
ENDBRANCH  43  44
ENDBRANCH  35  43
ENDBRANCH   1  30
TORSDOF 22
ENDMDL
