REMARK SMILES C[C@H]1O[C@H](O[C@H]2[C@H](O)[C@@H](O)[C@@H](O[C@H]3[C@H](O)[C@@H](O)[C@@H](O)O[C@@H]3CO)O[C@@H]2CO)[C@H](O)[C@@H](O)[C@@H]1N[C@H]1C[C@H](CO)[C@@H](O)[C@H](O)[C@H]1O
REMARK SMILES IDX 5 1 4 2 1 3 2 4 32 5 3 6 30 7 28 8 33 9 34 11 35 12 43 13
REMARK SMILES IDX 36 14 41 15 39 16 44 17 37 19 38 20 42 22 40 24 31 26 29 28
REMARK SMILES IDX 6 30 25 31 7 32 24 33 9 34 11 35 26 36 27 37 8 39 10 41
REMARK SMILES IDX 12 43 13 44 21 45 14 46 20 47 16 48 18 49 22 50 23 51 15 53
REMARK SMILES IDX 17 55 19 57
REMARK H PARENT 33 10 44 18 38 21 42 23 40 25 31 27 29 29 27 38 8 40 10 42
REMARK H PARENT 23 52 15 54 17 56 19 58
REMARK Flexibility Score: inf
ROOT
ATOM      1  O   UNL     1      -0.097   7.635   0.263  1.00  0.00    -0.341 OA
ENDROOT
BRANCH   1   2
ATOM      2  C   UNL     1       0.170   6.230   0.101  1.00  0.00     0.282 C 
ATOM      3  C   UNL     1       2.442   4.157  -0.073  1.00  0.00     0.040 C 
ATOM      4  C   UNL     1       1.388   4.344   1.032  1.00  0.00     0.138 C 
ATOM      5  C   UNL     1       0.113   3.414   0.942  1.00  0.00     0.114 C 
ATOM      6  O   UNL     1       1.031   5.733   1.123  1.00  0.00    -0.345 OA
ATOM      7  C   UNL     1      -0.741   3.922  -0.260  1.00  0.00     0.167 C 
ATOM      8  C   UNL     1      -1.111   5.391  -0.025  1.00  0.00     0.201 C 
BRANCH   5   9
ATOM      9  N   UNL     1      -0.633   3.445   2.268  1.00  0.00    -0.304 NA
ATOM     10  H   UNL     1      -0.019   3.058   2.985  1.00  0.00     0.123 HD
BRANCH   9  11
ATOM     11  C   UNL     1      -1.956   2.719   2.292  1.00  0.00     0.086 C 
ATOM     12  C   UNL     1      -1.813   1.195   2.319  1.00  0.00     0.030 C 
ATOM     13  C   UNL     1      -2.929   3.130   3.450  1.00  0.00     0.162 C 
ATOM     14  C   UNL     1      -1.316   0.660   3.671  1.00  0.00     0.048 C 
ATOM     15  C   UNL     1      -2.482   2.623   4.827  1.00  0.00     0.173 C 
ATOM     16  C   UNL     1      -2.239   1.105   4.815  1.00  0.00     0.151 C 
BRANCH  13  17
ATOM     17  O   UNL     1      -3.160   4.538   3.484  1.00  0.00    -0.389 OA
ATOM     18  H   UNL     1      -2.300   4.991   3.514  1.00  0.00     0.211 HD
ENDBRANCH  13  17
BRANCH  14  19
ATOM     19  C   UNL     1      -1.193  -0.870   3.640  1.00  0.00     0.162 C 
BRANCH  19  20
ATOM     20  O   UNL     1      -2.371  -1.449   3.094  1.00  0.00    -0.396 OA
ATOM     21  H   UNL     1      -2.658  -2.153   3.701  1.00  0.00     0.210 HD
ENDBRANCH  19  20
ENDBRANCH  14  19
BRANCH  15  22
ATOM     22  O   UNL     1      -3.444   2.929   5.854  1.00  0.00    -0.388 OA
ATOM     23  H   UNL     1      -4.274   2.440   5.636  1.00  0.00     0.211 HD
ENDBRANCH  15  22
BRANCH  16  24
ATOM     24  O   UNL     1      -1.653   0.686   6.056  1.00  0.00    -0.390 OA
ATOM     25  H   UNL     1      -1.224   1.458   6.469  1.00  0.00     0.211 HD
ENDBRANCH  16  24
ENDBRANCH   9  11
ENDBRANCH   5   9
BRANCH   7  26
ATOM     26  O   UNL     1      -0.048   3.749  -1.495  1.00  0.00    -0.388 OA
ATOM     27  H   UNL     1      -0.545   4.214  -2.192  1.00  0.00     0.211 HD
ENDBRANCH   7  26
BRANCH   8  28
ATOM     28  O   UNL     1      -1.881   5.475   1.175  1.00  0.00    -0.385 OA
ATOM     29  H   UNL     1      -1.300   5.087   1.868  1.00  0.00     0.211 HD
ENDBRANCH   8  28
ENDBRANCH   1   2
BRANCH   1  30
ATOM     30  C   UNL     1      -0.807   8.062   1.444  1.00  0.00     0.184 C 
ATOM     31  C   UNL     1      -1.206   9.540   1.232  1.00  0.00     0.178 C 
ATOM     32  C   UNL     1       0.059   7.934   2.707  1.00  0.00     0.180 C 
ATOM     33  O   UNL     1      -0.021  10.344   1.068  1.00  0.00    -0.341 OA
ATOM     34  C   UNL     1       1.267   8.860   2.583  1.00  0.00     0.202 C 
ATOM     35  C   UNL     1       0.868  10.314   2.187  1.00  0.00     0.282 C 
BRANCH  31  36
ATOM     36  C   UNL     1      -2.183  10.056   2.321  1.00  0.00     0.191 C 
BRANCH  36  37
ATOM     37  O   UNL     1      -2.656  11.364   2.050  1.00  0.00    -0.394 OA
ATOM     38  H   UNL     1      -3.108  11.341   1.194  1.00  0.00     0.210 HD
ENDBRANCH  36  37
ENDBRANCH  31  36
BRANCH  32  39
ATOM     39  O   UNL     1      -0.714   8.200   3.880  1.00  0.00    -0.387 OA
ATOM     40  H   UNL     1      -0.126   8.523   4.586  1.00  0.00     0.211 HD
ENDBRANCH  32  39
BRANCH  34  41
ATOM     41  O   UNL     1       2.227   8.330   1.654  1.00  0.00    -0.385 OA
ATOM     42  H   UNL     1       1.766   8.282   0.790  1.00  0.00     0.211 HD
ENDBRANCH  34  41
BRANCH  35  43
ATOM     43  O   UNL     1       2.022  11.126   1.869  1.00  0.00    -0.341 OA
BRANCH  43  44
ATOM     44  C   UNL     1       3.051  11.109   2.874  1.00  0.00     0.184 C 
ATOM     45  C   UNL     1       2.580  11.795   4.175  1.00  0.00     0.178 C 
ATOM     46  C   UNL     1       4.354  11.725   2.328  1.00  0.00     0.180 C 
ATOM     47  O   UNL     1       2.586  13.217   4.071  1.00  0.00    -0.342 OA
ATOM     48  C   UNL     1       4.364  13.257   2.349  1.00  0.00     0.201 C 
ATOM     49  C   UNL     1       3.824  13.786   3.692  1.00  0.00     0.279 C 
BRANCH  45  50
ATOM     50  C   UNL     1       3.301  11.276   5.427  1.00  0.00     0.191 C 
BRANCH  50  51
ATOM     51  O   UNL     1       3.042   9.886   5.619  1.00  0.00    -0.394 OA
ATOM     52  H   UNL     1       3.683   9.385   5.081  1.00  0.00     0.210 HD
ENDBRANCH  50  51
ENDBRANCH  45  50
BRANCH  46  53
ATOM     53  O   UNL     1       5.452  11.179   3.087  1.00  0.00    -0.387 OA
ATOM     54  H   UNL     1       5.912  11.878   3.581  1.00  0.00     0.211 HD
ENDBRANCH  46  53
BRANCH  48  55
ATOM     55  O   UNL     1       3.600  13.814   1.270  1.00  0.00    -0.385 OA
ATOM     56  H   UNL     1       3.908  13.402   0.442  1.00  0.00     0.211 HD
ENDBRANCH  48  55
BRANCH  49  57
ATOM     57  O   UNL     1       3.638  15.190   3.600  1.00  0.00    -0.366 OA
ATOM     58  H   UNL     1       3.122  15.287   2.774  1.00  0.00     0.213 HD
ENDBRANCH  49  57
ENDBRANCH  43  44
ENDBRANCH  35  43
ENDBRANCH   1  30
TORSDOF 22
