MODEL 1
REMARK VINA RESULT:      -6.1      0.000      0.000
REMARK SMILES C[C@H]1O[C@H](O[C@H]2[C@H](O)[C@@H](O)[C@@H](O[C@H]3[C@H](O)[C@@H](O)[C@@H](O)O[C@@H]3CO)O[C@@H]2CO)[C@H](O)[C@@H](O)[C@@H]1N[C@H]1C[C@H](CO)[C@@H](O)[C@H](O)[C@H]1O
REMARK SMILES IDX 5 1 4 2 1 3 2 4 32 5 3 6 30 7 28 8 33 9 34 11 35 12 43 13
REMARK SMILES IDX 36 14 41 15 39 16 44 17 37 19 38 20 42 22 40 24 31 26 29 28
REMARK SMILES IDX 6 30 25 31 7 32 24 33 9 34 11 35 26 36 27 37 8 39 10 41
REMARK SMILES IDX 12 43 13 44 21 45 14 46 20 47 16 48 18 49 22 50 23 51 15 53
REMARK SMILES IDX 17 55 19 57
REMARK H PARENT 33 10 44 18 38 21 42 23 40 25 31 27 29 29 27 38 8 40 10 42
REMARK H PARENT 23 52 15 54 17 56 19 58
REMARK Flexibility Score: inf
ROOT
ATOM      1  O   UNL     1     -27.002 -32.027  16.941  1.00  0.00    -0.341 OA
ENDROOT
BRANCH   1   2
ATOM      2  C   UNL     1     -26.559 -32.409  15.626  1.00  0.00     0.282 C 
ATOM      3  C   UNL     1     -25.670 -31.281  12.901  1.00  0.00     0.040 C 
ATOM      4  C   UNL     1     -24.838 -32.038  13.951  1.00  0.00     0.138 C 
ATOM      5  C   UNL     1     -24.665 -33.591  13.714  1.00  0.00     0.114 C 
ATOM      6  O   UNL     1     -25.348 -31.751  15.263  1.00  0.00    -0.345 OA
ATOM      7  C   UNL     1     -26.044 -34.256  14.011  1.00  0.00     0.167 C 
ATOM      8  C   UNL     1     -26.456 -33.932  15.451  1.00  0.00     0.201 C 
BRANCH   5   9
ATOM      9  N   UNL     1     -23.540 -34.117  14.594  1.00  0.00    -0.304 NA
ATOM     10  H   UNL     1     -23.960 -34.608  15.384  1.00  0.00     0.123 HD
BRANCH   9  11
ATOM     11  C   UNL     1     -22.568 -33.080  15.103  1.00  0.00     0.086 C 
ATOM     12  C   UNL     1     -22.600 -32.912  16.624  1.00  0.00     0.030 C 
ATOM     13  C   UNL     1     -21.075 -33.289  14.675  1.00  0.00     0.162 C 
ATOM     14  C   UNL     1     -21.974 -34.097  17.375  1.00  0.00     0.048 C 
ATOM     15  C   UNL     1     -20.396 -34.462  15.394  1.00  0.00     0.173 C 
ATOM     16  C   UNL     1     -20.527 -34.337  16.920  1.00  0.00     0.151 C 
BRANCH  13  17
ATOM     17  O   UNL     1     -20.934 -33.418  13.261  1.00  0.00    -0.389 OA
ATOM     18  H   UNL     1     -19.986 -33.451  13.047  1.00  0.00     0.211 HD
ENDBRANCH  13  17
BRANCH  14  19
ATOM     19  C   UNL     1     -22.033 -33.873  18.893  1.00  0.00     0.162 C 
BRANCH  19  20
ATOM     20  O   UNL     1     -23.384 -33.807  19.330  1.00  0.00    -0.396 OA
ATOM     21  H   UNL     1     -23.545 -32.899  19.641  1.00  0.00     0.210 HD
ENDBRANCH  19  20
ENDBRANCH  14  19
BRANCH  15  22
ATOM     22  O   UNL     1     -19.000 -34.568  15.056  1.00  0.00    -0.388 OA
ATOM     23  H   UNL     1     -18.926 -34.473  14.076  1.00  0.00     0.211 HD
ENDBRANCH  15  22
BRANCH  16  24
ATOM     24  O   UNL     1     -20.045 -35.528  17.559  1.00  0.00    -0.390 OA
ATOM     25  H   UNL     1     -20.061 -35.387  18.524  1.00  0.00     0.211 HD
ENDBRANCH  16  24
ENDBRANCH   9  11
ENDBRANCH   5   9
BRANCH   7  26
ATOM     26  O   UNL     1     -27.034 -33.830  13.076  1.00  0.00    -0.388 OA
ATOM     27  H   UNL     1     -26.606 -33.252  12.419  1.00  0.00     0.211 HD
ENDBRANCH   7  26
BRANCH   8  28
ATOM     28  O   UNL     1     -25.470 -34.469  16.334  1.00  0.00    -0.385 OA
ATOM     29  H   UNL     1     -24.650 -33.967  16.121  1.00  0.00     0.211 HD
ENDBRANCH   8  28
ENDBRANCH   1   2
BRANCH   1  30
ATOM     30  C   UNL     1     -28.310 -32.457  17.371  1.00  0.00     0.184 C 
ATOM     31  C   UNL     1     -29.337 -31.878  16.372  1.00  0.00     0.178 C 
ATOM     32  C   UNL     1     -28.633 -31.967  18.791  1.00  0.00     0.180 C 
ATOM     33  O   UNL     1     -29.275 -30.438  16.393  1.00  0.00    -0.341 OA
ATOM     34  C   UNL     1     -28.668 -30.440  18.799  1.00  0.00     0.202 C 
ATOM     35  C   UNL     1     -29.566 -29.856  17.667  1.00  0.00     0.282 C 
BRANCH  31  36
ATOM     36  C   UNL     1     -30.761 -32.459  16.576  1.00  0.00     0.191 C 
BRANCH  36  37
ATOM     37  O   UNL     1     -31.626 -32.167  15.492  1.00  0.00    -0.394 OA
ATOM     38  H   UNL     1     -32.444 -31.803  15.860  1.00  0.00     0.210 HD
ENDBRANCH  36  37
ENDBRANCH  31  36
BRANCH  32  39
ATOM     39  O   UNL     1     -29.855 -32.542  19.260  1.00  0.00    -0.387 OA
ATOM     40  H   UNL     1     -30.606 -32.108  18.817  1.00  0.00     0.211 HD
ENDBRANCH  32  39
BRANCH  34  41
ATOM     41  O   UNL     1     -27.340 -29.896  18.720  1.00  0.00    -0.385 OA
ATOM     42  H   UNL     1     -27.434 -28.934  18.880  1.00  0.00     0.211 HD
ENDBRANCH  34  41
BRANCH  35  43
ATOM     43  O   UNL     1     -29.428 -28.421  17.550  1.00  0.00    -0.341 OA
BRANCH  43  44
ATOM     44  C   UNL     1     -30.542 -27.770  16.915  1.00  0.00     0.184 C 
ATOM     45  C   UNL     1     -30.227 -26.292  16.600  1.00  0.00     0.178 C 
ATOM     46  C   UNL     1     -31.819 -27.927  17.765  1.00  0.00     0.180 C 
ATOM     47  O   UNL     1     -30.294 -25.464  17.759  1.00  0.00    -0.342 OA
ATOM     48  C   UNL     1     -31.906 -26.934  18.929  1.00  0.00     0.201 C 
ATOM     49  C   UNL     1     -31.519 -25.517  18.465  1.00  0.00     0.279 C 
BRANCH  45  50
ATOM     50  C   UNL     1     -31.034 -25.741  15.415  1.00  0.00     0.191 C 
BRANCH  50  51
ATOM     51  O   UNL     1     -30.212 -24.927  14.580  1.00  0.00    -0.394 OA
ATOM     52  H   UNL     1     -30.465 -25.097  13.654  1.00  0.00     0.210 HD
ENDBRANCH  50  51
ENDBRANCH  45  50
BRANCH  46  53
ATOM     53  O   UNL     1     -32.953 -27.809  16.883  1.00  0.00    -0.387 OA
ATOM     54  H   UNL     1     -33.188 -26.876  16.745  1.00  0.00     0.211 HD
ENDBRANCH  46  53
BRANCH  48  55
ATOM     55  O   UNL     1     -31.075 -27.324  20.031  1.00  0.00    -0.385 OA
ATOM     56  H   UNL     1     -31.656 -27.523  20.788  1.00  0.00     0.211 HD
ENDBRANCH  48  55
BRANCH  49  57
ATOM     57  O   UNL     1     -31.395 -24.672  19.598  1.00  0.00    -0.366 OA
ATOM     58  H   UNL     1     -31.810 -23.839  19.295  1.00  0.00     0.213 HD
ENDBRANCH  49  57
ENDBRANCH  43  44
ENDBRANCH  35  43
ENDBRANCH   1  30
TORSDOF 22
ENDMDL
MODEL 2
REMARK VINA RESULT:      -6.1      6.286     10.568
REMARK SMILES C[C@H]1O[C@H](O[C@H]2[C@H](O)[C@@H](O)[C@@H](O[C@H]3[C@H](O)[C@@H](O)[C@@H](O)O[C@@H]3CO)O[C@@H]2CO)[C@H](O)[C@@H](O)[C@@H]1N[C@H]1C[C@H](CO)[C@@H](O)[C@H](O)[C@H]1O
REMARK SMILES IDX 5 1 4 2 1 3 2 4 32 5 3 6 30 7 28 8 33 9 34 11 35 12 43 13
REMARK SMILES IDX 36 14 41 15 39 16 44 17 37 19 38 20 42 22 40 24 31 26 29 28
REMARK SMILES IDX 6 30 25 31 7 32 24 33 9 34 11 35 26 36 27 37 8 39 10 41
REMARK SMILES IDX 12 43 13 44 21 45 14 46 20 47 16 48 18 49 22 50 23 51 15 53
REMARK SMILES IDX 17 55 19 57
REMARK H PARENT 33 10 44 18 38 21 42 23 40 25 31 27 29 29 27 38 8 40 10 42
REMARK H PARENT 23 52 15 54 17 56 19 58
REMARK Flexibility Score: inf
ROOT
ATOM      1  O   UNL     1     -33.188 -29.811  17.874  1.00  0.00    -0.341 OA
ENDROOT
BRANCH   1   2
ATOM      2  C   UNL     1     -31.971 -29.171  17.449  1.00  0.00     0.282 C 
ATOM      3  C   UNL     1     -29.899 -29.081  15.170  1.00  0.00     0.040 C 
ATOM      4  C   UNL     1     -30.910 -28.004  15.600  1.00  0.00     0.138 C 
ATOM      5  C   UNL     1     -30.360 -26.878  16.563  1.00  0.00     0.114 C 
ATOM      6  O   UNL     1     -32.086 -28.635  16.133  1.00  0.00    -0.345 OA
ATOM      7  C   UNL     1     -30.139 -27.536  17.959  1.00  0.00     0.167 C 
ATOM      8  C   UNL     1     -31.468 -28.121  18.452  1.00  0.00     0.201 C 
BRANCH   5   9
ATOM      9  N   UNL     1     -31.338 -25.712  16.593  1.00  0.00    -0.304 NA
ATOM     10  H   UNL     1     -31.721 -25.597  15.655  1.00  0.00     0.123 HD
BRANCH   9  11
ATOM     11  C   UNL     1     -30.774 -24.397  17.072  1.00  0.00     0.086 C 
ATOM     12  C   UNL     1     -29.392 -24.081  16.494  1.00  0.00     0.030 C 
ATOM     13  C   UNL     1     -31.690 -23.146  16.838  1.00  0.00     0.162 C 
ATOM     14  C   UNL     1     -29.434 -23.701  15.006  1.00  0.00     0.048 C 
ATOM     15  C   UNL     1     -31.770 -22.720  15.367  1.00  0.00     0.173 C 
ATOM     16  C   UNL     1     -30.371 -22.508  14.766  1.00  0.00     0.151 C 
BRANCH  13  17
ATOM     17  O   UNL     1     -32.997 -23.328  17.381  1.00  0.00    -0.389 OA
ATOM     18  H   UNL     1     -32.946 -23.986  18.095  1.00  0.00     0.211 HD
ENDBRANCH  13  17
BRANCH  14  19
ATOM     19  C   UNL     1     -28.024 -23.394  14.481  1.00  0.00     0.162 C 
BRANCH  19  20
ATOM     20  O   UNL     1     -27.826 -21.989  14.390  1.00  0.00    -0.396 OA
ATOM     21  H   UNL     1     -27.837 -21.754  13.446  1.00  0.00     0.210 HD
ENDBRANCH  19  20
ENDBRANCH  14  19
BRANCH  15  22
ATOM     22  O   UNL     1     -32.536 -21.513  15.195  1.00  0.00    -0.388 OA
ATOM     23  H   UNL     1     -33.434 -21.775  14.880  1.00  0.00     0.211 HD
ENDBRANCH  15  22
BRANCH  16  24
ATOM     24  O   UNL     1     -30.467 -22.287  13.351  1.00  0.00    -0.390 OA
ATOM     25  H   UNL     1     -30.235 -21.358  13.169  1.00  0.00     0.211 HD
ENDBRANCH  16  24
ENDBRANCH   9  11
ENDBRANCH   5   9
BRANCH   7  26
ATOM     26  O   UNL     1     -29.119 -28.532  17.905  1.00  0.00    -0.388 OA
ATOM     27  H   UNL     1     -28.476 -28.350  18.614  1.00  0.00     0.211 HD
ENDBRANCH   7  26
BRANCH   8  28
ATOM     28  O   UNL     1     -32.412 -27.056  18.572  1.00  0.00    -0.385 OA
ATOM     29  H   UNL     1     -33.250 -27.428  18.215  1.00  0.00     0.211 HD
ENDBRANCH   8  28
ENDBRANCH   1   2
BRANCH   1  30
ATOM     30  C   UNL     1     -33.825 -30.735  16.967  1.00  0.00     0.184 C 
ATOM     31  C   UNL     1     -35.036 -31.346  17.708  1.00  0.00     0.178 C 
ATOM     32  C   UNL     1     -32.867 -31.853  16.527  1.00  0.00     0.180 C 
ATOM     33  O   UNL     1     -34.581 -32.057  18.877  1.00  0.00    -0.341 OA
ATOM     34  C   UNL     1     -32.459 -32.674  17.748  1.00  0.00     0.202 C 
ATOM     35  C   UNL     1     -33.684 -33.134  18.596  1.00  0.00     0.282 C 
BRANCH  31  36
ATOM     36  C   UNL     1     -35.952 -32.176  16.771  1.00  0.00     0.191 C 
BRANCH  36  37
ATOM     37  O   UNL     1     -36.271 -31.486  15.575  1.00  0.00    -0.394 OA
ATOM     38  H   UNL     1     -37.209 -31.250  15.614  1.00  0.00     0.210 HD
ENDBRANCH  36  37
ENDBRANCH  31  36
BRANCH  32  39
ATOM     39  O   UNL     1     -33.462 -32.656  15.504  1.00  0.00    -0.387 OA
ATOM     40  H   UNL     1     -33.028 -33.527  15.486  1.00  0.00     0.211 HD
ENDBRANCH  32  39
BRANCH  34  41
ATOM     41  O   UNL     1     -31.524 -31.950  18.565  1.00  0.00    -0.385 OA
ATOM     42  H   UNL     1     -31.723 -31.000  18.423  1.00  0.00     0.211 HD
ENDBRANCH  34  41
BRANCH  35  43
ATOM     43  O   UNL     1     -33.282 -33.727  19.853  1.00  0.00    -0.341 OA
BRANCH  43  44
ATOM     44  C   UNL     1     -34.331 -34.442  20.530  1.00  0.00     0.184 C 
ATOM     45  C   UNL     1     -33.832 -35.047  21.861  1.00  0.00     0.178 C 
ATOM     46  C   UNL     1     -34.952 -35.504  19.602  1.00  0.00     0.180 C 
ATOM     47  O   UNL     1     -33.044 -36.219  21.661  1.00  0.00    -0.342 OA
ATOM     48  C   UNL     1     -34.133 -36.796  19.514  1.00  0.00     0.201 C 
ATOM     49  C   UNL     1     -33.671 -37.244  20.914  1.00  0.00     0.279 C 
BRANCH  45  50
ATOM     50  C   UNL     1     -34.950 -35.237  22.895  1.00  0.00     0.191 C 
BRANCH  50  51
ATOM     51  O   UNL     1     -34.406 -35.389  24.205  1.00  0.00    -0.394 OA
ATOM     52  H   UNL     1     -34.828 -36.166  24.617  1.00  0.00     0.210 HD
ENDBRANCH  50  51
ENDBRANCH  45  50
BRANCH  46  53
ATOM     53  O   UNL     1     -36.295 -35.760  20.061  1.00  0.00    -0.387 OA
ATOM     54  H   UNL     1     -36.939 -35.603  19.350  1.00  0.00     0.211 HD
ENDBRANCH  46  53
BRANCH  48  55
ATOM     55  O   UNL     1     -32.993 -36.651  18.655  1.00  0.00    -0.385 OA
ATOM     56  H   UNL     1     -32.311 -37.280  18.955  1.00  0.00     0.211 HD
ENDBRANCH  48  55
BRANCH  49  57
ATOM     57  O   UNL     1     -32.739 -38.306  20.781  1.00  0.00    -0.366 OA
ATOM     58  H   UNL     1     -32.397 -38.182  19.873  1.00  0.00     0.213 HD
ENDBRANCH  49  57
ENDBRANCH  43  44
ENDBRANCH  35  43
ENDBRANCH   1  30
TORSDOF 22
ENDMDL
MODEL 3
REMARK VINA RESULT:      -6.0      4.864     10.192
REMARK SMILES C[C@H]1O[C@H](O[C@H]2[C@H](O)[C@@H](O)[C@@H](O[C@H]3[C@H](O)[C@@H](O)[C@@H](O)O[C@@H]3CO)O[C@@H]2CO)[C@H](O)[C@@H](O)[C@@H]1N[C@H]1C[C@H](CO)[C@@H](O)[C@H](O)[C@H]1O
REMARK SMILES IDX 5 1 4 2 1 3 2 4 32 5 3 6 30 7 28 8 33 9 34 11 35 12 43 13
REMARK SMILES IDX 36 14 41 15 39 16 44 17 37 19 38 20 42 22 40 24 31 26 29 28
REMARK SMILES IDX 6 30 25 31 7 32 24 33 9 34 11 35 26 36 27 37 8 39 10 41
REMARK SMILES IDX 12 43 13 44 21 45 14 46 20 47 16 48 18 49 22 50 23 51 15 53
REMARK SMILES IDX 17 55 19 57
REMARK H PARENT 33 10 44 18 38 21 42 23 40 25 31 27 29 29 27 38 8 40 10 42
REMARK H PARENT 23 52 15 54 17 56 19 58
REMARK Flexibility Score: inf
ROOT
ATOM      1  O   UNL     1     -31.616 -35.478  15.723  1.00  0.00    -0.341 OA
ENDROOT
BRANCH   1   2
ATOM      2  C   UNL     1     -33.039 -35.394  15.920  1.00  0.00     0.282 C 
ATOM      3  C   UNL     1     -35.685 -36.903  15.457  1.00  0.00     0.040 C 
ATOM      4  C   UNL     1     -34.974 -36.584  16.784  1.00  0.00     0.138 C 
ATOM      5  C   UNL     1     -35.481 -35.300  17.554  1.00  0.00     0.114 C 
ATOM      6  O   UNL     1     -33.553 -36.554  16.571  1.00  0.00    -0.345 OA
ATOM      7  C   UNL     1     -34.995 -34.059  16.744  1.00  0.00     0.167 C 
ATOM      8  C   UNL     1     -33.466 -34.102  16.633  1.00  0.00     0.201 C 
BRANCH   5   9
ATOM      9  N   UNL     1     -34.963 -35.329  18.984  1.00  0.00    -0.304 NA
ATOM     10  H   UNL     1     -34.901 -36.303  19.279  1.00  0.00     0.123 HD
BRANCH   9  11
ATOM     11  C   UNL     1     -35.775 -34.549  19.990  1.00  0.00     0.086 C 
ATOM     12  C   UNL     1     -36.443 -35.432  21.048  1.00  0.00     0.030 C 
ATOM     13  C   UNL     1     -35.005 -33.406  20.736  1.00  0.00     0.162 C 
ATOM     14  C   UNL     1     -35.448 -36.012  22.065  1.00  0.00     0.048 C 
ATOM     15  C   UNL     1     -33.995 -33.926  21.766  1.00  0.00     0.173 C 
ATOM     16  C   UNL     1     -34.655 -34.896  22.761  1.00  0.00     0.151 C 
BRANCH  13  17
ATOM     17  O   UNL     1     -34.377 -32.500  19.830  1.00  0.00    -0.389 OA
ATOM     18  H   UNL     1     -34.819 -32.571  18.967  1.00  0.00     0.211 HD
ENDBRANCH  13  17
BRANCH  14  19
ATOM     19  C   UNL     1     -36.172 -36.885  23.099  1.00  0.00     0.162 C 
BRANCH  19  20
ATOM     20  O   UNL     1     -36.242 -36.214  24.350  1.00  0.00    -0.396 OA
ATOM     21  H   UNL     1     -36.902 -36.678  24.894  1.00  0.00     0.210 HD
ENDBRANCH  19  20
ENDBRANCH  14  19
BRANCH  15  22
ATOM     22  O   UNL     1     -33.376 -32.856  22.505  1.00  0.00    -0.388 OA
ATOM     23  H   UNL     1     -34.082 -32.422  23.043  1.00  0.00     0.211 HD
ENDBRANCH  15  22
BRANCH  16  24
ATOM     24  O   UNL     1     -33.659 -35.504  23.596  1.00  0.00    -0.390 OA
ATOM     25  H   UNL     1     -33.739 -35.128  24.492  1.00  0.00     0.211 HD
ENDBRANCH  16  24
ENDBRANCH   9  11
ENDBRANCH   5   9
BRANCH   7  26
ATOM     26  O   UNL     1     -35.611 -34.008  15.459  1.00  0.00    -0.388 OA
ATOM     27  H   UNL     1     -35.252 -34.735  14.919  1.00  0.00     0.211 HD
ENDBRANCH   7  26
BRANCH   8  28
ATOM     28  O   UNL     1     -32.917 -34.056  17.951  1.00  0.00    -0.385 OA
ATOM     29  H   UNL     1     -31.944 -34.025  17.811  1.00  0.00     0.211 HD
ENDBRANCH   8  28
ENDBRANCH   1   2
BRANCH   1  30
ATOM     30  C   UNL     1     -31.025 -34.685  14.672  1.00  0.00     0.184 C 
ATOM     31  C   UNL     1     -29.709 -35.380  14.256  1.00  0.00     0.178 C 
ATOM     32  C   UNL     1     -30.731 -33.251  15.137  1.00  0.00     0.180 C 
ATOM     33  O   UNL     1     -28.810 -35.430  15.381  1.00  0.00    -0.341 OA
ATOM     34  C   UNL     1     -29.702 -33.290  16.265  1.00  0.00     0.202 C 
ATOM     35  C   UNL     1     -28.452 -34.149  15.904  1.00  0.00     0.282 C 
BRANCH  31  36
ATOM     36  C   UNL     1     -29.091 -34.767  12.971  1.00  0.00     0.191 C 
BRANCH  36  37
ATOM     37  O   UNL     1     -27.814 -35.303  12.674  1.00  0.00    -0.394 OA
ATOM     38  H   UNL     1     -27.772 -36.191  13.058  1.00  0.00     0.210 HD
ENDBRANCH  36  37
ENDBRANCH  31  36
BRANCH  32  39
ATOM     39  O   UNL     1     -30.306 -32.439  14.039  1.00  0.00    -0.387 OA
ATOM     40  H   UNL     1     -29.849 -32.998  13.385  1.00  0.00     0.211 HD
ENDBRANCH  32  39
BRANCH  34  41
ATOM     41  O   UNL     1     -30.297 -33.756  17.487  1.00  0.00    -0.385 OA
ATOM     42  H   UNL     1     -31.127 -34.209  17.226  1.00  0.00     0.211 HD
ENDBRANCH  34  41
BRANCH  35  43
ATOM     43  O   UNL     1     -27.586 -34.353  17.045  1.00  0.00    -0.341 OA
BRANCH  43  44
ATOM     44  C   UNL     1     -26.225 -33.937  16.834  1.00  0.00     0.184 C 
ATOM     45  C   UNL     1     -25.475 -33.761  18.173  1.00  0.00     0.178 C 
ATOM     46  C   UNL     1     -26.174 -32.665  15.965  1.00  0.00     0.180 C 
ATOM     47  O   UNL     1     -25.832 -32.552  18.840  1.00  0.00    -0.342 OA
ATOM     48  C   UNL     1     -26.442 -31.376  16.749  1.00  0.00     0.201 C 
ATOM     49  C   UNL     1     -25.661 -31.374  18.077  1.00  0.00     0.279 C 
BRANCH  45  50
ATOM     50  C   UNL     1     -23.958 -33.959  18.047  1.00  0.00     0.191 C 
BRANCH  50  51
ATOM     51  O   UNL     1     -23.650 -34.810  16.943  1.00  0.00    -0.394 OA
ATOM     52  H   UNL     1     -23.753 -35.733  17.240  1.00  0.00     0.210 HD
ENDBRANCH  50  51
ENDBRANCH  45  50
BRANCH  46  53
ATOM     53  O   UNL     1     -24.888 -32.628  15.313  1.00  0.00    -0.387 OA
ATOM     54  H   UNL     1     -24.949 -32.982  14.410  1.00  0.00     0.211 HD
ENDBRANCH  46  53
BRANCH  48  55
ATOM     55  O   UNL     1     -27.840 -31.189  17.013  1.00  0.00    -0.385 OA
ATOM     56  H   UNL     1     -27.976 -31.271  17.974  1.00  0.00     0.211 HD
ENDBRANCH  48  55
BRANCH  49  57
ATOM     57  O   UNL     1     -26.097 -30.283  18.874  1.00  0.00    -0.366 OA
ATOM     58  H   UNL     1     -26.938 -30.612  19.251  1.00  0.00     0.213 HD
ENDBRANCH  49  57
ENDBRANCH  43  44
ENDBRANCH  35  43
ENDBRANCH   1  30
TORSDOF 22
ENDMDL
MODEL 4
REMARK VINA RESULT:      -5.9      3.059      9.676
REMARK SMILES C[C@H]1O[C@H](O[C@H]2[C@H](O)[C@@H](O)[C@@H](O[C@H]3[C@H](O)[C@@H](O)[C@@H](O)O[C@@H]3CO)O[C@@H]2CO)[C@H](O)[C@@H](O)[C@@H]1N[C@H]1C[C@H](CO)[C@@H](O)[C@H](O)[C@H]1O
REMARK SMILES IDX 5 1 4 2 1 3 2 4 32 5 3 6 30 7 28 8 33 9 34 11 35 12 43 13
REMARK SMILES IDX 36 14 41 15 39 16 44 17 37 19 38 20 42 22 40 24 31 26 29 28
REMARK SMILES IDX 6 30 25 31 7 32 24 33 9 34 11 35 26 36 27 37 8 39 10 41
REMARK SMILES IDX 12 43 13 44 21 45 14 46 20 47 16 48 18 49 22 50 23 51 15 53
REMARK SMILES IDX 17 55 19 57
REMARK H PARENT 33 10 44 18 38 21 42 23 40 25 31 27 29 29 27 38 8 40 10 42
REMARK H PARENT 23 52 15 54 17 56 19 58
REMARK Flexibility Score: inf
ROOT
ATOM      1  O   UNL     1     -26.179 -29.714  12.324  1.00  0.00    -0.341 OA
ENDROOT
BRANCH   1   2
ATOM      2  C   UNL     1     -27.552 -29.375  12.057  1.00  0.00     0.282 C 
ATOM      3  C   UNL     1     -30.448 -30.364  12.408  1.00  0.00     0.040 C 
ATOM      4  C   UNL     1     -29.752 -29.161  13.068  1.00  0.00     0.138 C 
ATOM      5  C   UNL     1     -29.986 -27.758  12.378  1.00  0.00     0.114 C 
ATOM      6  O   UNL     1     -28.354 -29.449  13.234  1.00  0.00    -0.345 OA
ATOM      7  C   UNL     1     -29.184 -27.765  11.041  1.00  0.00     0.167 C 
ATOM      8  C   UNL     1     -27.704 -28.021  11.346  1.00  0.00     0.201 C 
BRANCH   5   9
ATOM      9  N   UNL     1     -29.563 -26.648  13.329  1.00  0.00    -0.304 NA
ATOM     10  H   UNL     1     -29.187 -27.081  14.173  1.00  0.00     0.123 HD
BRANCH   9  11
ATOM     11  C   UNL     1     -30.642 -25.663  13.706  1.00  0.00     0.086 C 
ATOM     12  C   UNL     1     -31.071 -25.762  15.173  1.00  0.00     0.030 C 
ATOM     13  C   UNL     1     -30.318 -24.160  13.402  1.00  0.00     0.162 C 
ATOM     14  C   UNL     1     -30.015 -25.219  16.148  1.00  0.00     0.048 C 
ATOM     15  C   UNL     1     -29.266 -23.563  14.347  1.00  0.00     0.173 C 
ATOM     16  C   UNL     1     -29.657 -23.762  15.820  1.00  0.00     0.151 C 
BRANCH  13  17
ATOM     17  O   UNL     1     -29.943 -23.955  12.040  1.00  0.00    -0.389 OA
ATOM     18  H   UNL     1     -29.316 -23.213  12.001  1.00  0.00     0.211 HD
ENDBRANCH  13  17
BRANCH  14  19
ATOM     19  C   UNL     1     -30.499 -25.343  17.600  1.00  0.00     0.162 C 
BRANCH  19  20
ATOM     20  O   UNL     1     -31.716 -24.629  17.777  1.00  0.00    -0.396 OA
ATOM     21  H   UNL     1     -31.643 -23.799  17.275  1.00  0.00     0.210 HD
ENDBRANCH  19  20
ENDBRANCH  14  19
BRANCH  15  22
ATOM     22  O   UNL     1     -29.062 -22.157  14.109  1.00  0.00    -0.388 OA
ATOM     23  H   UNL     1     -28.218 -21.902  14.554  1.00  0.00     0.211 HD
ENDBRANCH  15  22
BRANCH  16  24
ATOM     24  O   UNL     1     -28.580 -23.359  16.678  1.00  0.00    -0.390 OA
ATOM     25  H   UNL     1     -27.984 -22.777  16.171  1.00  0.00     0.211 HD
ENDBRANCH  16  24
ENDBRANCH   9  11
ENDBRANCH   5   9
BRANCH   7  26
ATOM     26  O   UNL     1     -29.705 -28.734  10.132  1.00  0.00    -0.388 OA
ATOM     27  H   UNL     1     -30.675 -28.742  10.217  1.00  0.00     0.211 HD
ENDBRANCH   7  26
BRANCH   8  28
ATOM     28  O   UNL     1     -27.228 -26.964  12.181  1.00  0.00    -0.385 OA
ATOM     29  H   UNL     1     -27.331 -26.153  11.634  1.00  0.00     0.211 HD
ENDBRANCH   8  28
ENDBRANCH   1   2
BRANCH   1  30
ATOM     30  C   UNL     1     -25.623 -30.872  11.667  1.00  0.00     0.184 C 
ATOM     31  C   UNL     1     -26.185 -32.121  12.384  1.00  0.00     0.178 C 
ATOM     32  C   UNL     1     -24.088 -30.883  11.732  1.00  0.00     0.180 C 
ATOM     33  O   UNL     1     -25.777 -32.112  13.766  1.00  0.00    -0.341 OA
ATOM     34  C   UNL     1     -23.648 -30.973  13.192  1.00  0.00     0.202 C 
ATOM     35  C   UNL     1     -24.361 -32.127  13.960  1.00  0.00     0.282 C 
BRANCH  31  36
ATOM     36  C   UNL     1     -25.860 -33.438  11.631  1.00  0.00     0.191 C 
BRANCH  36  37
ATOM     37  O   UNL     1     -25.986 -34.582  12.458  1.00  0.00    -0.394 OA
ATOM     38  H   UNL     1     -26.742 -35.094  12.136  1.00  0.00     0.210 HD
ENDBRANCH  36  37
ENDBRANCH  31  36
BRANCH  32  39
ATOM     39  O   UNL     1     -23.555 -31.943  10.935  1.00  0.00    -0.387 OA
ATOM     40  H   UNL     1     -22.765 -32.308  11.372  1.00  0.00     0.211 HD
ENDBRANCH  32  39
BRANCH  34  41
ATOM     41  O   UNL     1     -23.847 -29.720  13.867  1.00  0.00    -0.385 OA
ATOM     42  H   UNL     1     -23.762 -29.028  13.177  1.00  0.00     0.211 HD
ENDBRANCH  34  41
BRANCH  35  43
ATOM     43  O   UNL     1     -24.099 -32.075  15.382  1.00  0.00    -0.341 OA
BRANCH  43  44
ATOM     44  C   UNL     1     -24.930 -32.947  16.168  1.00  0.00     0.184 C 
ATOM     45  C   UNL     1     -25.242 -32.334  17.551  1.00  0.00     0.178 C 
ATOM     46  C   UNL     1     -24.296 -34.347  16.280  1.00  0.00     0.180 C 
ATOM     47  O   UNL     1     -24.140 -32.434  18.449  1.00  0.00    -0.342 OA
ATOM     48  C   UNL     1     -23.198 -34.440  17.345  1.00  0.00     0.201 C 
ATOM     49  C   UNL     1     -23.643 -33.744  18.646  1.00  0.00     0.279 C 
BRANCH  45  50
ATOM     50  C   UNL     1     -26.562 -32.838  18.152  1.00  0.00     0.191 C 
BRANCH  50  51
ATOM     51  O   UNL     1     -27.482 -33.193  17.121  1.00  0.00    -0.394 OA
ATOM     52  H   UNL     1     -26.967 -33.459  16.337  1.00  0.00     0.210 HD
ENDBRANCH  50  51
ENDBRANCH  45  50
BRANCH  46  53
ATOM     53  O   UNL     1     -25.356 -35.293  16.530  1.00  0.00    -0.387 OA
ATOM     54  H   UNL     1     -26.075 -35.184  15.885  1.00  0.00     0.211 HD
ENDBRANCH  46  53
BRANCH  48  55
ATOM     55  O   UNL     1     -21.962 -33.871  16.893  1.00  0.00    -0.385 OA
ATOM     56  H   UNL     1     -22.029 -32.902  16.979  1.00  0.00     0.211 HD
ENDBRANCH  48  55
BRANCH  49  57
ATOM     57  O   UNL     1     -22.535 -33.652  19.529  1.00  0.00    -0.366 OA
ATOM     58  H   UNL     1     -22.947 -33.776  20.408  1.00  0.00     0.213 HD
ENDBRANCH  49  57
ENDBRANCH  43  44
ENDBRANCH  35  43
ENDBRANCH   1  30
TORSDOF 22
ENDMDL
MODEL 5
REMARK VINA RESULT:      -5.7      2.857      8.725
REMARK SMILES C[C@H]1O[C@H](O[C@H]2[C@H](O)[C@@H](O)[C@@H](O[C@H]3[C@H](O)[C@@H](O)[C@@H](O)O[C@@H]3CO)O[C@@H]2CO)[C@H](O)[C@@H](O)[C@@H]1N[C@H]1C[C@H](CO)[C@@H](O)[C@H](O)[C@H]1O
REMARK SMILES IDX 5 1 4 2 1 3 2 4 32 5 3 6 30 7 28 8 33 9 34 11 35 12 43 13
REMARK SMILES IDX 36 14 41 15 39 16 44 17 37 19 38 20 42 22 40 24 31 26 29 28
REMARK SMILES IDX 6 30 25 31 7 32 24 33 9 34 11 35 26 36 27 37 8 39 10 41
REMARK SMILES IDX 12 43 13 44 21 45 14 46 20 47 16 48 18 49 22 50 23 51 15 53
REMARK SMILES IDX 17 55 19 57
REMARK H PARENT 33 10 44 18 38 21 42 23 40 25 31 27 29 29 27 38 8 40 10 42
REMARK H PARENT 23 52 15 54 17 56 19 58
REMARK Flexibility Score: inf
ROOT
ATOM      1  O   UNL     1     -28.312 -33.570  16.202  1.00  0.00    -0.341 OA
ENDROOT
BRANCH   1   2
ATOM      2  C   UNL     1     -29.125 -32.634  15.471  1.00  0.00     0.282 C 
ATOM      3  C   UNL     1     -30.702 -30.001  15.744  1.00  0.00     0.040 C 
ATOM      4  C   UNL     1     -29.416 -30.278  14.947  1.00  0.00     0.138 C 
ATOM      5  C   UNL     1     -29.604 -30.593  13.410  1.00  0.00     0.114 C 
ATOM      6  O   UNL     1     -28.650 -31.297  15.612  1.00  0.00    -0.345 OA
ATOM      7  C   UNL     1     -30.232 -32.017  13.308  1.00  0.00     0.167 C 
ATOM      8  C   UNL     1     -29.304 -33.024  13.996  1.00  0.00     0.201 C 
BRANCH   5   9
ATOM      9  N   UNL     1     -28.264 -30.473  12.699  1.00  0.00    -0.304 NA
ATOM     10  H   UNL     1     -27.579 -30.129  13.372  1.00  0.00     0.123 HD
BRANCH   9  11
ATOM     11  C   UNL     1     -28.250 -29.593  11.472  1.00  0.00     0.086 C 
ATOM     12  C   UNL     1     -28.948 -28.247  11.682  1.00  0.00     0.030 C 
ATOM     13  C   UNL     1     -26.835 -29.310  10.862  1.00  0.00     0.162 C 
ATOM     14  C   UNL     1     -28.146 -27.285  12.573  1.00  0.00     0.048 C 
ATOM     15  C   UNL     1     -25.987 -28.355  11.711  1.00  0.00     0.173 C 
ATOM     16  C   UNL     1     -26.740 -27.047  12.005  1.00  0.00     0.151 C 
BRANCH  13  17
ATOM     17  O   UNL     1     -26.116 -30.513  10.591  1.00  0.00    -0.389 OA
ATOM     18  H   UNL     1     -26.454 -31.213  11.175  1.00  0.00     0.211 HD
ENDBRANCH  13  17
BRANCH  14  19
ATOM     19  C   UNL     1     -28.892 -25.954  12.747  1.00  0.00     0.162 C 
BRANCH  19  20
ATOM     20  O   UNL     1     -29.871 -26.067  13.771  1.00  0.00    -0.396 OA
ATOM     21  H   UNL     1     -29.586 -26.778  14.370  1.00  0.00     0.210 HD
ENDBRANCH  19  20
ENDBRANCH  14  19
BRANCH  15  22
ATOM     22  O   UNL     1     -24.734 -28.035  11.078  1.00  0.00    -0.388 OA
ATOM     23  H   UNL     1     -24.102 -28.764  11.289  1.00  0.00     0.211 HD
ENDBRANCH  15  22
BRANCH  16  24
ATOM     24  O   UNL     1     -26.003 -26.250  12.944  1.00  0.00    -0.390 OA
ATOM     25  H   UNL     1     -25.346 -25.725  12.452  1.00  0.00     0.211 HD
ENDBRANCH  16  24
ENDBRANCH   9  11
ENDBRANCH   5   9
BRANCH   7  26
ATOM     26  O   UNL     1     -31.542 -32.045  13.871  1.00  0.00    -0.388 OA
ATOM     27  H   UNL     1     -31.946 -31.167  13.749  1.00  0.00     0.211 HD
ENDBRANCH   7  26
BRANCH   8  28
ATOM     28  O   UNL     1     -28.045 -33.010  13.321  1.00  0.00    -0.385 OA
ATOM     29  H   UNL     1     -28.225 -32.546  12.473  1.00  0.00     0.211 HD
ENDBRANCH   8  28
ENDBRANCH   1   2
BRANCH   1  30
ATOM     30  C   UNL     1     -27.748 -33.146  17.460  1.00  0.00     0.184 C 
ATOM     31  C   UNL     1     -26.622 -32.136  17.144  1.00  0.00     0.178 C 
ATOM     32  C   UNL     1     -27.176 -34.330  18.256  1.00  0.00     0.180 C 
ATOM     33  O   UNL     1     -25.602 -32.778  16.354  1.00  0.00    -0.341 OA
ATOM     34  C   UNL     1     -26.026 -34.954  17.468  1.00  0.00     0.202 C 
ATOM     35  C   UNL     1     -24.983 -33.897  16.992  1.00  0.00     0.282 C 
BRANCH  31  36
ATOM     36  C   UNL     1     -26.091 -31.418  18.412  1.00  0.00     0.191 C 
BRANCH  36  37
ATOM     37  O   UNL     1     -26.523 -30.071  18.495  1.00  0.00    -0.394 OA
ATOM     38  H   UNL     1     -27.473 -30.055  18.305  1.00  0.00     0.210 HD
ENDBRANCH  36  37
ENDBRANCH  31  36
BRANCH  32  39
ATOM     39  O   UNL     1     -26.778 -33.915  19.565  1.00  0.00    -0.387 OA
ATOM     40  H   UNL     1     -26.595 -32.958  19.557  1.00  0.00     0.211 HD
ENDBRANCH  32  39
BRANCH  34  41
ATOM     41  O   UNL     1     -26.521 -35.712  16.351  1.00  0.00    -0.385 OA
ATOM     42  H   UNL     1     -26.375 -36.654  16.581  1.00  0.00     0.211 HD
ENDBRANCH  34  41
BRANCH  35  43
ATOM     43  O   UNL     1     -24.017 -34.463  16.076  1.00  0.00    -0.341 OA
BRANCH  43  44
ATOM     44  C   UNL     1     -22.938 -33.575  15.735  1.00  0.00     0.184 C 
ATOM     45  C   UNL     1     -21.884 -34.281  14.854  1.00  0.00     0.178 C 
ATOM     46  C   UNL     1     -22.319 -32.959  17.005  1.00  0.00     0.180 C 
ATOM     47  O   UNL     1     -21.043 -35.152  15.607  1.00  0.00    -0.342 OA
ATOM     48  C   UNL     1     -21.327 -33.886  17.715  1.00  0.00     0.201 C 
ATOM     49  C   UNL     1     -20.377 -34.548  16.698  1.00  0.00     0.279 C 
BRANCH  45  50
ATOM     50  C   UNL     1     -21.103 -33.314  13.953  1.00  0.00     0.191 C 
BRANCH  50  51
ATOM     51  O   UNL     1     -21.430 -33.527  12.581  1.00  0.00    -0.394 OA
ATOM     52  H   UNL     1     -20.993 -34.350  12.293  1.00  0.00     0.210 HD
ENDBRANCH  50  51
ENDBRANCH  45  50
BRANCH  46  53
ATOM     53  O   UNL     1     -21.701 -31.710  16.633  1.00  0.00    -0.387 OA
ATOM     54  H   UNL     1     -20.761 -31.703  16.877  1.00  0.00     0.211 HD
ENDBRANCH  46  53
BRANCH  48  55
ATOM     55  O   UNL     1     -21.993 -34.899  18.482  1.00  0.00    -0.385 OA
ATOM     56  H   UNL     1     -21.577 -35.755  18.272  1.00  0.00     0.211 HD
ENDBRANCH  48  55
BRANCH  49  57
ATOM     57  O   UNL     1     -19.624 -35.559  17.352  1.00  0.00    -0.366 OA
ATOM     58  H   UNL     1     -20.299 -36.017  17.892  1.00  0.00     0.213 HD
ENDBRANCH  49  57
ENDBRANCH  43  44
ENDBRANCH  35  43
ENDBRANCH   1  30
TORSDOF 22
ENDMDL
MODEL 6
REMARK VINA RESULT:      -5.6      2.904      8.678
REMARK SMILES C[C@H]1O[C@H](O[C@H]2[C@H](O)[C@@H](O)[C@@H](O[C@H]3[C@H](O)[C@@H](O)[C@@H](O)O[C@@H]3CO)O[C@@H]2CO)[C@H](O)[C@@H](O)[C@@H]1N[C@H]1C[C@H](CO)[C@@H](O)[C@H](O)[C@H]1O
REMARK SMILES IDX 5 1 4 2 1 3 2 4 32 5 3 6 30 7 28 8 33 9 34 11 35 12 43 13
REMARK SMILES IDX 36 14 41 15 39 16 44 17 37 19 38 20 42 22 40 24 31 26 29 28
REMARK SMILES IDX 6 30 25 31 7 32 24 33 9 34 11 35 26 36 27 37 8 39 10 41
REMARK SMILES IDX 12 43 13 44 21 45 14 46 20 47 16 48 18 49 22 50 23 51 15 53
REMARK SMILES IDX 17 55 19 57
REMARK H PARENT 33 10 44 18 38 21 42 23 40 25 31 27 29 29 27 38 8 40 10 42
REMARK H PARENT 23 52 15 54 17 56 19 58
REMARK Flexibility Score: inf
ROOT
ATOM      1  O   UNL     1     -29.382 -32.597  16.932  1.00  0.00    -0.341 OA
ENDROOT
BRANCH   1   2
ATOM      2  C   UNL     1     -30.466 -31.900  16.292  1.00  0.00     0.282 C 
ATOM      3  C   UNL     1     -33.174 -30.531  16.825  1.00  0.00     0.040 C 
ATOM      4  C   UNL     1     -31.841 -29.898  16.388  1.00  0.00     0.138 C 
ATOM      5  C   UNL     1     -31.667 -29.645  14.838  1.00  0.00     0.114 C 
ATOM      6  O   UNL     1     -30.749 -30.658  16.932  1.00  0.00    -0.345 OA
ATOM      7  C   UNL     1     -31.476 -31.038  14.164  1.00  0.00     0.167 C 
ATOM      8  C   UNL     1     -30.253 -31.728  14.780  1.00  0.00     0.201 C 
BRANCH   5   9
ATOM      9  N   UNL     1     -30.499 -28.697  14.606  1.00  0.00    -0.304 NA
ATOM     10  H   UNL     1     -30.209 -28.325  15.511  1.00  0.00     0.123 HD
BRANCH   9  11
ATOM     11  C   UNL     1     -30.760 -27.557  13.652  1.00  0.00     0.086 C 
ATOM     12  C   UNL     1     -30.342 -26.193  14.207  1.00  0.00     0.030 C 
ATOM     13  C   UNL     1     -30.123 -27.711  12.228  1.00  0.00     0.162 C 
ATOM     14  C   UNL     1     -28.818 -26.005  14.262  1.00  0.00     0.048 C 
ATOM     15  C   UNL     1     -28.600 -27.535  12.221  1.00  0.00     0.173 C 
ATOM     16  C   UNL     1     -28.185 -26.207  12.877  1.00  0.00     0.151 C 
BRANCH  13  17
ATOM     17  O   UNL     1     -30.489 -28.943  11.606  1.00  0.00    -0.389 OA
ATOM     18  H   UNL     1     -29.868 -29.117  10.879  1.00  0.00     0.211 HD
ENDBRANCH  13  17
BRANCH  14  19
ATOM     19  C   UNL     1     -28.458 -24.623  14.823  1.00  0.00     0.162 C 
BRANCH  19  20
ATOM     20  O   UNL     1     -28.236 -23.702  13.763  1.00  0.00    -0.396 OA
ATOM     21  H   UNL     1     -29.099 -23.323  13.521  1.00  0.00     0.210 HD
ENDBRANCH  19  20
ENDBRANCH  14  19
BRANCH  15  22
ATOM     22  O   UNL     1     -28.056 -27.582  10.889  1.00  0.00    -0.388 OA
ATOM     23  H   UNL     1     -27.965 -28.534  10.641  1.00  0.00     0.211 HD
ENDBRANCH  15  22
BRANCH  16  24
ATOM     24  O   UNL     1     -26.759 -26.148  13.020  1.00  0.00    -0.390 OA
ATOM     25  H   UNL     1     -26.536 -26.323  13.953  1.00  0.00     0.211 HD
ENDBRANCH  16  24
ENDBRANCH   9  11
ENDBRANCH   5   9
BRANCH   7  26
ATOM     26  O   UNL     1     -32.648 -31.840  14.296  1.00  0.00    -0.388 OA
ATOM     27  H   UNL     1     -32.822 -31.974  15.245  1.00  0.00     0.211 HD
ENDBRANCH   7  26
BRANCH   8  28
ATOM     28  O   UNL     1     -29.104 -30.916  14.528  1.00  0.00    -0.385 OA
ATOM     29  H   UNL     1     -28.343 -31.533  14.618  1.00  0.00     0.211 HD
ENDBRANCH   8  28
ENDBRANCH   1   2
BRANCH   1  30
ATOM     30  C   UNL     1     -28.893 -32.087  18.190  1.00  0.00     0.184 C 
ATOM     31  C   UNL     1     -27.935 -30.917  17.872  1.00  0.00     0.178 C 
ATOM     32  C   UNL     1     -28.147 -33.166  18.991  1.00  0.00     0.180 C 
ATOM     33  O   UNL     1     -26.826 -31.398  17.086  1.00  0.00    -0.341 OA
ATOM     34  C   UNL     1     -26.914 -33.609  18.207  1.00  0.00     0.202 C 
ATOM     35  C   UNL     1     -26.045 -32.407  17.729  1.00  0.00     0.282 C 
BRANCH  31  36
ATOM     36  C   UNL     1     -27.523 -30.122  19.139  1.00  0.00     0.191 C 
BRANCH  36  37
ATOM     37  O   UNL     1     -28.272 -28.929  19.298  1.00  0.00    -0.394 OA
ATOM     38  H   UNL     1     -27.684 -28.185  19.100  1.00  0.00     0.210 HD
ENDBRANCH  36  37
ENDBRANCH  31  36
BRANCH  32  39
ATOM     39  O   UNL     1     -27.820 -32.690  20.299  1.00  0.00    -0.387 OA
ATOM     40  H   UNL     1     -26.923 -32.987  20.534  1.00  0.00     0.211 HD
ENDBRANCH  32  39
BRANCH  34  41
ATOM     41  O   UNL     1     -27.284 -34.438  17.093  1.00  0.00    -0.385 OA
ATOM     42  H   UNL     1     -27.315 -35.355  17.439  1.00  0.00     0.211 HD
ENDBRANCH  34  41
BRANCH  35  43
ATOM     43  O   UNL     1     -25.001 -32.820  16.817  1.00  0.00    -0.341 OA
BRANCH  43  44
ATOM     44  C   UNL     1     -25.351 -32.700  15.427  1.00  0.00     0.184 C 
ATOM     45  C   UNL     1     -25.396 -34.081  14.736  1.00  0.00     0.178 C 
ATOM     46  C   UNL     1     -24.402 -31.720  14.710  1.00  0.00     0.180 C 
ATOM     47  O   UNL     1     -24.094 -34.588  14.453  1.00  0.00    -0.342 OA
ATOM     48  C   UNL     1     -23.059 -32.344  14.315  1.00  0.00     0.201 C 
ATOM     49  C   UNL     1     -23.271 -33.734  13.684  1.00  0.00     0.279 C 
BRANCH  45  50
ATOM     50  C   UNL     1     -26.338 -34.119  13.524  1.00  0.00     0.191 C 
BRANCH  50  51
ATOM     51  O   UNL     1     -27.648 -33.686  13.889  1.00  0.00    -0.394 OA
ATOM     52  H   UNL     1     -27.618 -33.392  14.818  1.00  0.00     0.210 HD
ENDBRANCH  50  51
ENDBRANCH  45  50
BRANCH  46  53
ATOM     53  O   UNL     1     -25.097 -31.192  13.562  1.00  0.00    -0.387 OA
ATOM     54  H   UNL     1     -24.563 -31.293  12.757  1.00  0.00     0.211 HD
ENDBRANCH  46  53
BRANCH  48  55
ATOM     55  O   UNL     1     -22.168 -32.453  15.434  1.00  0.00    -0.385 OA
ATOM     56  H   UNL     1     -22.362 -31.719  16.044  1.00  0.00     0.211 HD
ENDBRANCH  48  55
BRANCH  49  57
ATOM     57  O   UNL     1     -22.013 -34.374  13.533  1.00  0.00    -0.366 OA
ATOM     58  H   UNL     1     -21.529 -34.092  14.336  1.00  0.00     0.213 HD
ENDBRANCH  49  57
ENDBRANCH  43  44
ENDBRANCH  35  43
ENDBRANCH   1  30
TORSDOF 22
ENDMDL
MODEL 7
REMARK VINA RESULT:      -5.5      4.368      6.848
REMARK SMILES C[C@H]1O[C@H](O[C@H]2[C@H](O)[C@@H](O)[C@@H](O[C@H]3[C@H](O)[C@@H](O)[C@@H](O)O[C@@H]3CO)O[C@@H]2CO)[C@H](O)[C@@H](O)[C@@H]1N[C@H]1C[C@H](CO)[C@@H](O)[C@H](O)[C@H]1O
REMARK SMILES IDX 5 1 4 2 1 3 2 4 32 5 3 6 30 7 28 8 33 9 34 11 35 12 43 13
REMARK SMILES IDX 36 14 41 15 39 16 44 17 37 19 38 20 42 22 40 24 31 26 29 28
REMARK SMILES IDX 6 30 25 31 7 32 24 33 9 34 11 35 26 36 27 37 8 39 10 41
REMARK SMILES IDX 12 43 13 44 21 45 14 46 20 47 16 48 18 49 22 50 23 51 15 53
REMARK SMILES IDX 17 55 19 57
REMARK H PARENT 33 10 44 18 38 21 42 23 40 25 31 27 29 29 27 38 8 40 10 42
REMARK H PARENT 23 52 15 54 17 56 19 58
REMARK Flexibility Score: inf
ROOT
ATOM      1  O   UNL     1     -30.999 -33.520  16.811  1.00  0.00    -0.341 OA
ENDROOT
BRANCH   1   2
ATOM      2  C   UNL     1     -30.063 -33.318  15.736  1.00  0.00     0.282 C 
ATOM      3  C   UNL     1     -28.542 -31.147  14.167  1.00  0.00     0.040 C 
ATOM      4  C   UNL     1     -27.985 -32.215  15.124  1.00  0.00     0.138 C 
ATOM      5  C   UNL     1     -27.429 -33.532  14.449  1.00  0.00     0.114 C 
ATOM      6  O   UNL     1     -28.962 -32.506  16.138  1.00  0.00    -0.345 OA
ATOM      7  C   UNL     1     -28.659 -34.332  13.923  1.00  0.00     0.167 C 
ATOM      8  C   UNL     1     -29.598 -34.635  15.096  1.00  0.00     0.201 C 
BRANCH   5   9
ATOM      9  N   UNL     1     -26.592 -34.305  15.458  1.00  0.00    -0.304 NA
ATOM     10  H   UNL     1     -26.565 -33.767  16.325  1.00  0.00     0.123 HD
BRANCH   9  11
ATOM     11  C   UNL     1     -25.185 -34.635  15.025  1.00  0.00     0.086 C 
ATOM     12  C   UNL     1     -24.842 -34.119  13.625  1.00  0.00     0.030 C 
ATOM     13  C   UNL     1     -24.052 -34.163  16.001  1.00  0.00     0.162 C 
ATOM     14  C   UNL     1     -24.669 -32.593  13.571  1.00  0.00     0.048 C 
ATOM     15  C   UNL     1     -23.835 -32.645  15.989  1.00  0.00     0.173 C 
ATOM     16  C   UNL     1     -23.596 -32.122  14.563  1.00  0.00     0.151 C 
BRANCH  13  17
ATOM     17  O   UNL     1     -24.261 -34.631  17.333  1.00  0.00    -0.389 OA
ATOM     18  H   UNL     1     -25.208 -34.558  17.541  1.00  0.00     0.211 HD
ENDBRANCH  13  17
BRANCH  14  19
ATOM     19  C   UNL     1     -24.327 -32.134  12.146  1.00  0.00     0.162 C 
BRANCH  19  20
ATOM     20  O   UNL     1     -22.952 -31.781  12.059  1.00  0.00    -0.396 OA
ATOM     21  H   UNL     1     -22.906 -30.817  11.941  1.00  0.00     0.210 HD
ENDBRANCH  19  20
ENDBRANCH  14  19
BRANCH  15  22
ATOM     22  O   UNL     1     -22.724 -32.252  16.818  1.00  0.00    -0.388 OA
ATOM     23  H   UNL     1     -23.057 -31.576  17.457  1.00  0.00     0.211 HD
ENDBRANCH  15  22
BRANCH  16  24
ATOM     24  O   UNL     1     -23.575 -30.687  14.558  1.00  0.00    -0.390 OA
ATOM     25  H   UNL     1     -22.708 -30.395  14.222  1.00  0.00     0.211 HD
ENDBRANCH  16  24
ENDBRANCH   9  11
ENDBRANCH   5   9
BRANCH   7  26
ATOM     26  O   UNL     1     -29.333 -33.621  12.886  1.00  0.00    -0.388 OA
ATOM     27  H   UNL     1     -28.669 -33.331  12.233  1.00  0.00     0.211 HD
ENDBRANCH   7  26
BRANCH   8  28
ATOM     28  O   UNL     1     -28.887 -35.427  16.049  1.00  0.00    -0.385 OA
ATOM     29  H   UNL     1     -28.573 -34.781  16.721  1.00  0.00     0.211 HD
ENDBRANCH   8  28
ENDBRANCH   1   2
BRANCH   1  30
ATOM     30  C   UNL     1     -32.316 -32.944  16.685  1.00  0.00     0.184 C 
ATOM     31  C   UNL     1     -32.596 -32.148  17.980  1.00  0.00     0.178 C 
ATOM     32  C   UNL     1     -33.393 -34.023  16.496  1.00  0.00     0.180 C 
ATOM     33  O   UNL     1     -32.568 -33.038  19.113  1.00  0.00    -0.341 OA
ATOM     34  C   UNL     1     -33.438 -34.911  17.738  1.00  0.00     0.202 C 
ATOM     35  C   UNL     1     -33.536 -34.088  19.058  1.00  0.00     0.282 C 
BRANCH  31  36
ATOM     36  C   UNL     1     -33.877 -31.279  17.880  1.00  0.00     0.191 C 
BRANCH  36  37
ATOM     37  O   UNL     1     -33.596 -29.891  17.910  1.00  0.00    -0.394 OA
ATOM     38  H   UNL     1     -34.025 -29.521  18.695  1.00  0.00     0.210 HD
ENDBRANCH  36  37
ENDBRANCH  31  36
BRANCH  32  39
ATOM     39  O   UNL     1     -34.660 -33.428  16.206  1.00  0.00    -0.387 OA
ATOM     40  H   UNL     1     -35.347 -34.118  16.203  1.00  0.00     0.211 HD
ENDBRANCH  32  39
BRANCH  34  41
ATOM     41  O   UNL     1     -32.305 -35.795  17.778  1.00  0.00    -0.385 OA
ATOM     42  H   UNL     1     -31.703 -35.428  18.459  1.00  0.00     0.211 HD
ENDBRANCH  34  41
BRANCH  35  43
ATOM     43  O   UNL     1     -33.367 -34.920  20.230  1.00  0.00    -0.341 OA
BRANCH  43  44
ATOM     44  C   UNL     1     -34.547 -35.648  20.612  1.00  0.00     0.184 C 
ATOM     45  C   UNL     1     -35.815 -34.774  20.485  1.00  0.00     0.178 C 
ATOM     46  C   UNL     1     -34.386 -36.241  22.025  1.00  0.00     0.180 C 
ATOM     47  O   UNL     1     -35.940 -33.841  21.556  1.00  0.00    -0.342 OA
ATOM     48  C   UNL     1     -34.650 -35.231  23.147  1.00  0.00     0.201 C 
ATOM     49  C   UNL     1     -35.919 -34.408  22.851  1.00  0.00     0.279 C 
BRANCH  45  50
ATOM     50  C   UNL     1     -37.091 -35.593  20.242  1.00  0.00     0.191 C 
BRANCH  50  51
ATOM     51  O   UNL     1     -38.239 -34.746  20.231  1.00  0.00    -0.394 OA
ATOM     52  H   UNL     1     -39.001 -35.279  19.937  1.00  0.00     0.210 HD
ENDBRANCH  50  51
ENDBRANCH  45  50
BRANCH  46  53
ATOM     53  O   UNL     1     -35.260 -37.384  22.126  1.00  0.00    -0.387 OA
ATOM     54  H   UNL     1     -34.760 -38.211  22.026  1.00  0.00     0.211 HD
ENDBRANCH  46  53
BRANCH  48  55
ATOM     55  O   UNL     1     -33.538 -34.347  23.347  1.00  0.00    -0.385 OA
ATOM     56  H   UNL     1     -33.794 -33.466  23.015  1.00  0.00     0.211 HD
ENDBRANCH  48  55
BRANCH  49  57
ATOM     57  O   UNL     1     -36.013 -33.343  23.785  1.00  0.00    -0.366 OA
ATOM     58  H   UNL     1     -35.103 -33.284  24.139  1.00  0.00     0.213 HD
ENDBRANCH  49  57
ENDBRANCH  43  44
ENDBRANCH  35  43
ENDBRANCH   1  30
TORSDOF 22
ENDMDL
MODEL 8
REMARK VINA RESULT:      -5.5      2.887      9.503
REMARK SMILES C[C@H]1O[C@H](O[C@H]2[C@H](O)[C@@H](O)[C@@H](O[C@H]3[C@H](O)[C@@H](O)[C@@H](O)O[C@@H]3CO)O[C@@H]2CO)[C@H](O)[C@@H](O)[C@@H]1N[C@H]1C[C@H](CO)[C@@H](O)[C@H](O)[C@H]1O
REMARK SMILES IDX 5 1 4 2 1 3 2 4 32 5 3 6 30 7 28 8 33 9 34 11 35 12 43 13
REMARK SMILES IDX 36 14 41 15 39 16 44 17 37 19 38 20 42 22 40 24 31 26 29 28
REMARK SMILES IDX 6 30 25 31 7 32 24 33 9 34 11 35 26 36 27 37 8 39 10 41
REMARK SMILES IDX 12 43 13 44 21 45 14 46 20 47 16 48 18 49 22 50 23 51 15 53
REMARK SMILES IDX 17 55 19 57
REMARK H PARENT 33 10 44 18 38 21 42 23 40 25 31 27 29 29 27 38 8 40 10 42
REMARK H PARENT 23 52 15 54 17 56 19 58
REMARK Flexibility Score: inf
ROOT
ATOM      1  O   UNL     1     -26.073 -30.183  12.192  1.00  0.00    -0.341 OA
ENDROOT
BRANCH   1   2
ATOM      2  C   UNL     1     -27.509 -30.243  12.268  1.00  0.00     0.282 C 
ATOM      3  C   UNL     1     -29.850 -31.870  13.434  1.00  0.00     0.040 C 
ATOM      4  C   UNL     1     -29.387 -30.448  13.797  1.00  0.00     0.138 C 
ATOM      5  C   UNL     1     -30.156 -29.263  13.088  1.00  0.00     0.114 C 
ATOM      6  O   UNL     1     -27.965 -30.347  13.615  1.00  0.00    -0.345 OA
ATOM      7  C   UNL     1     -29.715 -29.260  11.593  1.00  0.00     0.167 C 
ATOM      8  C   UNL     1     -28.193 -29.088  11.521  1.00  0.00     0.201 C 
BRANCH   5   9
ATOM      9  N   UNL     1     -29.854 -27.958  13.810  1.00  0.00    -0.304 NA
ATOM     10  H   UNL     1     -29.746 -28.164  14.803  1.00  0.00     0.123 HD
BRANCH   9  11
ATOM     11  C   UNL     1     -30.874 -26.860  13.631  1.00  0.00     0.086 C 
ATOM     12  C   UNL     1     -31.611 -26.498  14.923  1.00  0.00     0.030 C 
ATOM     13  C   UNL     1     -30.330 -25.532  13.001  1.00  0.00     0.162 C 
ATOM     14  C   UNL     1     -30.732 -25.734  15.925  1.00  0.00     0.048 C 
ATOM     15  C   UNL     1     -29.443 -24.725  13.959  1.00  0.00     0.173 C 
ATOM     16  C   UNL     1     -30.155 -24.459  15.295  1.00  0.00     0.151 C 
BRANCH  13  17
ATOM     17  O   UNL     1     -29.656 -25.759  11.764  1.00  0.00    -0.389 OA
ATOM     18  H   UNL     1     -29.888 -25.042  11.150  1.00  0.00     0.211 HD
ENDBRANCH  13  17
BRANCH  14  19
ATOM     19  C   UNL     1     -31.523 -25.398  17.198  1.00  0.00     0.162 C 
BRANCH  19  20
ATOM     20  O   UNL     1     -31.661 -23.990  17.336  1.00  0.00    -0.396 OA
ATOM     21  H   UNL     1     -30.871 -23.580  16.942  1.00  0.00     0.210 HD
ENDBRANCH  19  20
ENDBRANCH  14  19
BRANCH  15  22
ATOM     22  O   UNL     1     -29.040 -23.465  13.390  1.00  0.00    -0.388 OA
ATOM     23  H   UNL     1     -28.417 -23.039  14.027  1.00  0.00     0.211 HD
ENDBRANCH  15  22
BRANCH  16  24
ATOM     24  O   UNL     1     -29.246 -23.864  16.232  1.00  0.00    -0.390 OA
ATOM     25  H   UNL     1     -28.844 -24.575  16.763  1.00  0.00     0.211 HD
ENDBRANCH  16  24
ENDBRANCH   9  11
ENDBRANCH   5   9
BRANCH   7  26
ATOM     26  O   UNL     1     -30.138 -30.449  10.927  1.00  0.00    -0.388 OA
ATOM     27  H   UNL     1     -31.059 -30.633  11.186  1.00  0.00     0.211 HD
ENDBRANCH   7  26
BRANCH   8  28
ATOM     28  O   UNL     1     -27.853 -27.837  12.120  1.00  0.00    -0.385 OA
ATOM     29  H   UNL     1     -26.870 -27.847  12.171  1.00  0.00     0.211 HD
ENDBRANCH   8  28
ENDBRANCH   1   2
BRANCH   1  30
ATOM     30  C   UNL     1     -25.377 -31.285  11.573  1.00  0.00     0.184 C 
ATOM     31  C   UNL     1     -25.806 -32.573  12.310  1.00  0.00     0.178 C 
ATOM     32  C   UNL     1     -23.852 -31.118  11.664  1.00  0.00     0.180 C 
ATOM     33  O   UNL     1     -25.428 -32.487  13.699  1.00  0.00    -0.341 OA
ATOM     34  C   UNL     1     -23.433 -31.126  13.132  1.00  0.00     0.202 C 
ATOM     35  C   UNL     1     -24.024 -32.337  13.916  1.00  0.00     0.282 C 
BRANCH  31  36
ATOM     36  C   UNL     1     -25.319 -33.860  11.594  1.00  0.00     0.191 C 
BRANCH  36  37
ATOM     37  O   UNL     1     -25.941 -35.030  12.097  1.00  0.00    -0.394 OA
ATOM     38  H   UNL     1     -26.364 -35.481  11.352  1.00  0.00     0.210 HD
ENDBRANCH  36  37
ENDBRANCH  31  36
BRANCH  32  39
ATOM     39  O   UNL     1     -23.186 -32.127  10.901  1.00  0.00    -0.387 OA
ATOM     40  H   UNL     1     -22.741 -32.747  11.507  1.00  0.00     0.211 HD
ENDBRANCH  32  39
BRANCH  34  41
ATOM     41  O   UNL     1     -23.786 -29.889  13.774  1.00  0.00    -0.385 OA
ATOM     42  H   UNL     1     -23.004 -29.630  14.306  1.00  0.00     0.211 HD
ENDBRANCH  34  41
BRANCH  35  43
ATOM     43  O   UNL     1     -23.797 -32.224  15.341  1.00  0.00    -0.341 OA
BRANCH  43  44
ATOM     44  C   UNL     1     -24.717 -32.981  16.147  1.00  0.00     0.184 C 
ATOM     45  C   UNL     1     -25.005 -32.273  17.489  1.00  0.00     0.178 C 
ATOM     46  C   UNL     1     -24.208 -34.422  16.345  1.00  0.00     0.180 C 
ATOM     47  O   UNL     1     -23.935 -32.420  18.420  1.00  0.00    -0.342 OA
ATOM     48  C   UNL     1     -23.146 -34.552  17.441  1.00  0.00     0.201 C 
ATOM     49  C   UNL     1     -23.557 -33.755  18.694  1.00  0.00     0.279 C 
BRANCH  45  50
ATOM     50  C   UNL     1     -26.376 -32.631  18.079  1.00  0.00     0.191 C 
BRANCH  50  51
ATOM     51  O   UNL     1     -26.890 -31.550  18.856  1.00  0.00    -0.394 OA
ATOM     52  H   UNL     1     -27.105 -30.820  18.246  1.00  0.00     0.210 HD
ENDBRANCH  50  51
ENDBRANCH  45  50
BRANCH  46  53
ATOM     53  O   UNL     1     -25.351 -35.260  16.613  1.00  0.00    -0.387 OA
ATOM     54  H   UNL     1     -25.932 -34.850  17.274  1.00  0.00     0.211 HD
ENDBRANCH  46  53
BRANCH  48  55
ATOM     55  O   UNL     1     -21.855 -34.114  16.994  1.00  0.00    -0.385 OA
ATOM     56  H   UNL     1     -21.987 -33.542  16.215  1.00  0.00     0.211 HD
ENDBRANCH  48  55
BRANCH  49  57
ATOM     57  O   UNL     1     -22.465 -33.711  19.599  1.00  0.00    -0.366 OA
ATOM     58  H   UNL     1     -22.895 -33.866  20.465  1.00  0.00     0.213 HD
ENDBRANCH  49  57
ENDBRANCH  43  44
ENDBRANCH  35  43
ENDBRANCH   1  30
TORSDOF 22
ENDMDL
MODEL 9
REMARK VINA RESULT:      -5.4      2.457      9.938
REMARK SMILES C[C@H]1O[C@H](O[C@H]2[C@H](O)[C@@H](O)[C@@H](O[C@H]3[C@H](O)[C@@H](O)[C@@H](O)O[C@@H]3CO)O[C@@H]2CO)[C@H](O)[C@@H](O)[C@@H]1N[C@H]1C[C@H](CO)[C@@H](O)[C@H](O)[C@H]1O
REMARK SMILES IDX 5 1 4 2 1 3 2 4 32 5 3 6 30 7 28 8 33 9 34 11 35 12 43 13
REMARK SMILES IDX 36 14 41 15 39 16 44 17 37 19 38 20 42 22 40 24 31 26 29 28
REMARK SMILES IDX 6 30 25 31 7 32 24 33 9 34 11 35 26 36 27 37 8 39 10 41
REMARK SMILES IDX 12 43 13 44 21 45 14 46 20 47 16 48 18 49 22 50 23 51 15 53
REMARK SMILES IDX 17 55 19 57
REMARK H PARENT 33 10 44 18 38 21 42 23 40 25 31 27 29 29 27 38 8 40 10 42
REMARK H PARENT 23 52 15 54 17 56 19 58
REMARK Flexibility Score: inf
ROOT
ATOM      1  O   UNL     1     -29.313 -32.245  16.316  1.00  0.00    -0.341 OA
ENDROOT
BRANCH   1   2
ATOM      2  C   UNL     1     -30.668 -31.786  16.154  1.00  0.00     0.282 C 
ATOM      3  C   UNL     1     -33.585 -32.387  16.942  1.00  0.00     0.040 C 
ATOM      4  C   UNL     1     -32.698 -31.200  17.355  1.00  0.00     0.138 C 
ATOM      5  C   UNL     1     -32.872 -29.875  16.511  1.00  0.00     0.114 C 
ATOM      6  O   UNL     1     -31.326 -31.623  17.408  1.00  0.00    -0.345 OA
ATOM      7  C   UNL     1     -32.243 -30.138  15.109  1.00  0.00     0.167 C 
ATOM      8  C   UNL     1     -30.769 -30.522  15.287  1.00  0.00     0.201 C 
BRANCH   5   9
ATOM      9  N   UNL     1     -32.229 -28.712  17.252  1.00  0.00    -0.304 NA
ATOM     10  H   UNL     1     -32.394 -28.844  18.250  1.00  0.00     0.123 HD
BRANCH   9  11
ATOM     11  C   UNL     1     -32.696 -27.336  16.842  1.00  0.00     0.086 C 
ATOM     12  C   UNL     1     -33.796 -26.773  17.745  1.00  0.00     0.030 C 
ATOM     13  C   UNL     1     -31.571 -26.251  16.723  1.00  0.00     0.162 C 
ATOM     14  C   UNL     1     -33.283 -26.358  19.133  1.00  0.00     0.048 C 
ATOM     15  C   UNL     1     -31.019 -25.798  18.081  1.00  0.00     0.173 C 
ATOM     16  C   UNL     1     -32.145 -25.333  19.019  1.00  0.00     0.151 C 
BRANCH  13  17
ATOM     17  O   UNL     1     -30.510 -26.668  15.864  1.00  0.00    -0.389 OA
ATOM     18  H   UNL     1     -30.704 -27.568  15.550  1.00  0.00     0.211 HD
ENDBRANCH  13  17
BRANCH  14  19
ATOM     19  C   UNL     1     -34.427 -25.801  19.993  1.00  0.00     0.162 C 
BRANCH  19  20
ATOM     20  O   UNL     1     -35.412 -25.191  19.169  1.00  0.00    -0.396 OA
ATOM     21  H   UNL     1     -36.268 -25.283  19.622  1.00  0.00     0.210 HD
ENDBRANCH  19  20
ENDBRANCH  14  19
BRANCH  15  22
ATOM     22  O   UNL     1     -30.060 -24.732  17.946  1.00  0.00    -0.388 OA
ATOM     23  H   UNL     1     -29.169 -25.146  17.847  1.00  0.00     0.211 HD
ENDBRANCH  15  22
BRANCH  16  24
ATOM     24  O   UNL     1     -31.627 -25.086  20.334  1.00  0.00    -0.390 OA
ATOM     25  H   UNL     1     -30.655 -25.034  20.275  1.00  0.00     0.211 HD
ENDBRANCH  16  24
ENDBRANCH   9  11
ENDBRANCH   5   9
BRANCH   7  26
ATOM     26  O   UNL     1     -32.963 -31.146  14.401  1.00  0.00    -0.388 OA
ATOM     27  H   UNL     1     -33.105 -30.836  13.488  1.00  0.00     0.211 HD
ENDBRANCH   7  26
BRANCH   8  28
ATOM     28  O   UNL     1     -30.093 -29.432  15.915  1.00  0.00    -0.385 OA
ATOM     29  H   UNL     1     -29.868 -29.767  16.813  1.00  0.00     0.211 HD
ENDBRANCH   8  28
ENDBRANCH   1   2
BRANCH   1  30
ATOM     30  C   UNL     1     -28.703 -32.121  17.617  1.00  0.00     0.184 C 
ATOM     31  C   UNL     1     -27.382 -31.340  17.433  1.00  0.00     0.178 C 
ATOM     32  C   UNL     1     -28.411 -33.494  18.243  1.00  0.00     0.180 C 
ATOM     33  O   UNL     1     -26.502 -32.073  16.558  1.00  0.00    -0.341 OA
ATOM     34  C   UNL     1     -27.401 -34.238  17.372  1.00  0.00     0.202 C 
ATOM     35  C   UNL     1     -26.148 -33.373  17.037  1.00  0.00     0.282 C 
BRANCH  31  36
ATOM     36  C   UNL     1     -26.741 -30.925  18.783  1.00  0.00     0.191 C 
BRANCH  36  37
ATOM     37  O   UNL     1     -27.126 -29.623  19.190  1.00  0.00    -0.394 OA
ATOM     38  H   UNL     1     -27.896 -29.367  18.662  1.00  0.00     0.210 HD
ENDBRANCH  36  37
ENDBRANCH  31  36
BRANCH  32  39
ATOM     39  O   UNL     1     -27.965 -33.350  19.594  1.00  0.00    -0.387 OA
ATOM     40  H   UNL     1     -28.715 -33.076  20.152  1.00  0.00     0.211 HD
ENDBRANCH  32  39
BRANCH  34  41
ATOM     41  O   UNL     1     -28.019 -34.719  16.167  1.00  0.00    -0.385 OA
ATOM     42  H   UNL     1     -27.588 -35.577  15.969  1.00  0.00     0.211 HD
ENDBRANCH  34  41
BRANCH  35  43
ATOM     43  O   UNL     1     -25.302 -34.004  16.048  1.00  0.00    -0.341 OA
BRANCH  43  44
ATOM     44  C   UNL     1     -24.795 -33.106  15.046  1.00  0.00     0.184 C 
ATOM     45  C   UNL     1     -24.595 -33.825  13.693  1.00  0.00     0.178 C 
ATOM     46  C   UNL     1     -23.507 -32.416  15.536  1.00  0.00     0.180 C 
ATOM     47  O   UNL     1     -23.424 -34.638  13.679  1.00  0.00    -0.342 OA
ATOM     48  C   UNL     1     -22.252 -33.283  15.388  1.00  0.00     0.201 C 
ATOM     49  C   UNL     1     -22.223 -33.967  14.007  1.00  0.00     0.279 C 
BRANCH  45  50
ATOM     50  C   UNL     1     -24.691 -32.880  12.487  1.00  0.00     0.191 C 
BRANCH  50  51
ATOM     51  O   UNL     1     -26.015 -32.877  11.953  1.00  0.00    -0.394 OA
ATOM     52  H   UNL     1     -26.146 -33.715  11.472  1.00  0.00     0.210 HD
ENDBRANCH  50  51
ENDBRANCH  45  50
BRANCH  46  53
ATOM     53  O   UNL     1     -23.375 -31.170  14.822  1.00  0.00    -0.387 OA
ATOM     54  H   UNL     1     -24.028 -30.522  15.133  1.00  0.00     0.211 HD
ENDBRANCH  46  53
BRANCH  48  55
ATOM     55  O   UNL     1     -22.162 -34.277  16.419  1.00  0.00    -0.385 OA
ATOM     56  H   UNL     1     -21.370 -34.081  16.954  1.00  0.00     0.211 HD
ENDBRANCH  48  55
BRANCH  49  57
ATOM     57  O   UNL     1     -21.178 -34.927  13.983  1.00  0.00    -0.366 OA
ATOM     58  H   UNL     1     -20.373 -34.372  14.026  1.00  0.00     0.213 HD
ENDBRANCH  49  57
ENDBRANCH  43  44
ENDBRANCH  35  43
ENDBRANCH   1  30
TORSDOF 22
ENDMDL
