MODEL 1
REMARK VINA RESULT:      -3.9      0.000      0.000
REMARK  Name = 1103
REMARK  13 active torsions:
REMARK  status: ('A' for Active; 'I' for Inactive)
REMARK    1  A    between atoms: N_1  and  C_7
REMARK    2  A    between atoms: N_1  and  C_9
REMARK    3  A    between atoms: N_2  and  C_8
REMARK    4  A    between atoms: N_2  and  C_10
REMARK    5  A    between atoms: N_3  and  C_13
REMARK    6  A    between atoms: N_4  and  C_14
REMARK    7  A    between atoms: C_5  and  C_6
REMARK    8  A    between atoms: C_5  and  C_7
REMARK    9  A    between atoms: C_6  and  C_8
REMARK   10  A    between atoms: C_9  and  C_11
REMARK   11  A    between atoms: C_10  and  C_12
REMARK   12  A    between atoms: C_11  and  C_13
REMARK   13  A    between atoms: C_12  and  C_14
REMARK                            x       y       z     vdW  Elec       q    Type
REMARK                         _______ _______ _______ _____ _____    ______ ____
ROOT
ATOM      1  C   UNL     1     -21.521 -34.047  17.154  0.00  0.00    +0.016 C 
ENDROOT
BRANCH   1   2
ATOM      2  C   UNL     1     -22.058 -32.741  16.571  0.00  0.00    +0.081 C 
BRANCH   2   3
ATOM      3  N   UNL     1     -22.569 -32.959  15.223  0.00  0.00    -0.316 NA
ATOM      4  H   UNL     1     -21.815 -32.851  14.546  0.00  0.00    +0.122 HD
BRANCH   3   5
ATOM      5  C   UNL     1     -23.644 -32.024  14.918  0.00  0.00    +0.082 C 
BRANCH   5   6
ATOM      6  C   UNL     1     -24.080 -32.113  13.454  0.00  0.00    +0.030 C 
BRANCH   6   7
ATOM      7  C   UNL     1     -24.201 -30.743  12.784  0.00  0.00    +0.079 C 
BRANCH   7   8
ATOM      8  N   UNL     1     -23.001 -29.952  13.038  0.00  0.00    -0.330 NA
ATOM      9  H   UNL     1     -22.360 -30.038  12.250  0.00  0.00    +0.118 HD
ATOM     10  H   UNL     1     -22.511 -30.331  13.847  0.00  0.00    +0.118 HD
ENDBRANCH   7   8
ENDBRANCH   6   7
ENDBRANCH   5   6
ENDBRANCH   3   5
ENDBRANCH   2   3
ENDBRANCH   1   2
BRANCH   1  11
ATOM     11  C   UNL     1     -22.425 -34.562  18.279  0.00  0.00    +0.016 C 
BRANCH  11  12
ATOM     12  C   UNL     1     -23.452 -33.533  18.756  0.00  0.00    +0.081 C 
BRANCH  12  13
ATOM     13  N   UNL     1     -24.818 -34.039  18.683  0.00  0.00    -0.316 NA
ATOM     14  H   UNL     1     -24.808 -35.027  18.432  0.00  0.00    +0.122 HD
BRANCH  13  15
ATOM     15  C   UNL     1     -25.598 -33.288  17.710  0.00  0.00    +0.082 C 
BRANCH  15  16
ATOM     16  C   UNL     1     -27.001 -32.963  18.228  0.00  0.00    +0.030 C 
BRANCH  16  17
ATOM     17  C   UNL     1     -27.150 -31.509  18.676  0.00  0.00    +0.079 C 
BRANCH  17  18
ATOM     18  N   UNL     1     -25.889 -30.795  18.503  0.00  0.00    -0.330 NA
ATOM     19  H   UNL     1     -25.788 -30.509  17.530  0.00  0.00    +0.118 HD
ATOM     20  H   UNL     1     -25.114 -31.427  18.698  0.00  0.00    +0.118 HD
ENDBRANCH  17  18
ENDBRANCH  16  17
ENDBRANCH  15  16
ENDBRANCH  13  15
ENDBRANCH  12  13
ENDBRANCH  11  12
ENDBRANCH   1  11
TORSDOF 13
ENDMDL
MODEL 2
REMARK VINA RESULT:      -3.8      2.587      4.698
REMARK  Name = 1103
REMARK  13 active torsions:
REMARK  status: ('A' for Active; 'I' for Inactive)
REMARK    1  A    between atoms: N_1  and  C_7
REMARK    2  A    between atoms: N_1  and  C_9
REMARK    3  A    between atoms: N_2  and  C_8
REMARK    4  A    between atoms: N_2  and  C_10
REMARK    5  A    between atoms: N_3  and  C_13
REMARK    6  A    between atoms: N_4  and  C_14
REMARK    7  A    between atoms: C_5  and  C_6
REMARK    8  A    between atoms: C_5  and  C_7
REMARK    9  A    between atoms: C_6  and  C_8
REMARK   10  A    between atoms: C_9  and  C_11
REMARK   11  A    between atoms: C_10  and  C_12
REMARK   12  A    between atoms: C_11  and  C_13
REMARK   13  A    between atoms: C_12  and  C_14
REMARK                            x       y       z     vdW  Elec       q    Type
REMARK                         _______ _______ _______ _____ _____    ______ ____
ROOT
ATOM      1  C   UNL     1     -26.694 -33.841  17.608  0.00  0.00    +0.016 C 
ENDROOT
BRANCH   1   2
ATOM      2  C   UNL     1     -25.430 -33.521  16.812  0.00  0.00    +0.081 C 
BRANCH   2   3
ATOM      3  N   UNL     1     -24.364 -34.455  17.155  0.00  0.00    -0.316 NA
ATOM      4  H   UNL     1     -24.755 -35.264  17.636  0.00  0.00    +0.122 HD
BRANCH   3   5
ATOM      5  C   UNL     1     -23.363 -33.815  17.997  0.00  0.00    +0.082 C 
BRANCH   5   6
ATOM      6  C   UNL     1     -22.109 -34.677  18.151  0.00  0.00    +0.030 C 
BRANCH   6   7
ATOM      7  C   UNL     1     -20.979 -34.259  17.208  0.00  0.00    +0.079 C 
BRANCH   7   8
ATOM      8  N   UNL     1     -21.428 -34.334  15.822  0.00  0.00    -0.330 NA
ATOM      9  H   UNL     1     -22.303 -34.853  15.772  0.00  0.00    +0.118 HD
ATOM     10  H   UNL     1     -20.750 -34.866  15.276  0.00  0.00    +0.118 HD
ENDBRANCH   7   8
ENDBRANCH   6   7
ENDBRANCH   5   6
ENDBRANCH   3   5
ENDBRANCH   2   3
ENDBRANCH   1   2
BRANCH   1  11
ATOM     11  C   UNL     1     -27.295 -32.573  18.222  0.00  0.00    +0.016 C 
BRANCH  11  12
ATOM     12  C   UNL     1     -26.369 -31.358  18.142  0.00  0.00    +0.081 C 
BRANCH  12  13
ATOM     13  N   UNL     1     -26.808 -30.269  19.007  0.00  0.00    -0.316 NA
ATOM     14  H   UNL     1     -26.212 -30.222  19.833  0.00  0.00    +0.122 HD
BRANCH  13  15
ATOM     15  C   UNL     1     -28.196 -30.450  19.407  0.00  0.00    +0.082 C 
BRANCH  15  16
ATOM     16  C   UNL     1     -28.901 -29.115  19.652  0.00  0.00    +0.030 C 
BRANCH  16  17
ATOM     17  C   UNL     1     -29.719 -28.641  18.450  0.00  0.00    +0.079 C 
BRANCH  17  18
ATOM     18  N   UNL     1     -30.231 -27.295  18.687  0.00  0.00    -0.330 NA
ATOM     19  H   UNL     1     -30.038 -27.019  19.649  0.00  0.00    +0.118 HD
ATOM     20  H   UNL     1     -31.245 -27.297  18.587  0.00  0.00    +0.118 HD
ENDBRANCH  17  18
ENDBRANCH  16  17
ENDBRANCH  15  16
ENDBRANCH  13  15
ENDBRANCH  12  13
ENDBRANCH  11  12
ENDBRANCH   1  11
TORSDOF 13
ENDMDL
MODEL 3
REMARK VINA RESULT:      -3.8      2.846      3.844
REMARK  Name = 1103
REMARK  13 active torsions:
REMARK  status: ('A' for Active; 'I' for Inactive)
REMARK    1  A    between atoms: N_1  and  C_7
REMARK    2  A    between atoms: N_1  and  C_9
REMARK    3  A    between atoms: N_2  and  C_8
REMARK    4  A    between atoms: N_2  and  C_10
REMARK    5  A    between atoms: N_3  and  C_13
REMARK    6  A    between atoms: N_4  and  C_14
REMARK    7  A    between atoms: C_5  and  C_6
REMARK    8  A    between atoms: C_5  and  C_7
REMARK    9  A    between atoms: C_6  and  C_8
REMARK   10  A    between atoms: C_9  and  C_11
REMARK   11  A    between atoms: C_10  and  C_12
REMARK   12  A    between atoms: C_11  and  C_13
REMARK   13  A    between atoms: C_12  and  C_14
REMARK                            x       y       z     vdW  Elec       q    Type
REMARK                         _______ _______ _______ _____ _____    ______ ____
ROOT
ATOM      1  C   UNL     1     -23.066 -33.805  18.895  0.00  0.00    +0.016 C 
ENDROOT
BRANCH   1   2
ATOM      2  C   UNL     1     -22.031 -34.365  17.919  0.00  0.00    +0.081 C 
BRANCH   2   3
ATOM      3  N   UNL     1     -21.785 -33.415  16.840  0.00  0.00    -0.316 NA
ATOM      4  H   UNL     1     -22.520 -33.490  16.139  0.00  0.00    +0.122 HD
BRANCH   3   5
ATOM      5  C   UNL     1     -20.488 -33.656  16.222  0.00  0.00    +0.082 C 
BRANCH   5   6
ATOM      6  C   UNL     1     -20.026 -35.102  16.407  0.00  0.00    +0.030 C 
BRANCH   6   7
ATOM      7  C   UNL     1     -19.753 -35.815  15.081  0.00  0.00    +0.079 C 
BRANCH   7   8
ATOM      8  N   UNL     1     -18.834 -36.929  15.288  0.00  0.00    -0.330 NA
ATOM      9  H   UNL     1     -18.006 -36.603  15.784  0.00  0.00    +0.118 HD
ATOM     10  H   UNL     1     -18.510 -37.271  14.385  0.00  0.00    +0.118 HD
ENDBRANCH   7   8
ENDBRANCH   6   7
ENDBRANCH   5   6
ENDBRANCH   3   5
ENDBRANCH   2   3
ENDBRANCH   1   2
BRANCH   1  11
ATOM     11  C   UNL     1     -24.185 -33.070  18.149  0.00  0.00    +0.016 C 
BRANCH  11  12
ATOM     12  C   UNL     1     -25.573 -33.665  18.391  0.00  0.00    +0.081 C 
BRANCH  12  13
ATOM     13  N   UNL     1     -26.469 -33.456  17.259  0.00  0.00    -0.316 NA
ATOM     14  H   UNL     1     -26.064 -32.775  16.618  0.00  0.00    +0.122 HD
BRANCH  13  15
ATOM     15  C   UNL     1     -27.775 -32.996  17.709  0.00  0.00    +0.082 C 
BRANCH  15  16
ATOM     16  C   UNL     1     -27.692 -32.243  19.039  0.00  0.00    +0.030 C 
BRANCH  16  17
ATOM     17  C   UNL     1     -27.719 -30.724  18.868  0.00  0.00    +0.079 C 
BRANCH  17  18
ATOM     18  N   UNL     1     -26.360 -30.197  18.829  0.00  0.00    -0.330 NA
ATOM     19  H   UNL     1     -26.385 -29.179  18.883  0.00  0.00    +0.118 HD
ATOM     20  H   UNL     1     -25.934 -30.424  17.931  0.00  0.00    +0.118 HD
ENDBRANCH  17  18
ENDBRANCH  16  17
ENDBRANCH  15  16
ENDBRANCH  13  15
ENDBRANCH  12  13
ENDBRANCH  11  12
ENDBRANCH   1  11
TORSDOF 13
ENDMDL
MODEL 4
REMARK VINA RESULT:      -3.7      2.324      3.986
REMARK  Name = 1103
REMARK  13 active torsions:
REMARK  status: ('A' for Active; 'I' for Inactive)
REMARK    1  A    between atoms: N_1  and  C_7
REMARK    2  A    between atoms: N_1  and  C_9
REMARK    3  A    between atoms: N_2  and  C_8
REMARK    4  A    between atoms: N_2  and  C_10
REMARK    5  A    between atoms: N_3  and  C_13
REMARK    6  A    between atoms: N_4  and  C_14
REMARK    7  A    between atoms: C_5  and  C_6
REMARK    8  A    between atoms: C_5  and  C_7
REMARK    9  A    between atoms: C_6  and  C_8
REMARK   10  A    between atoms: C_9  and  C_11
REMARK   11  A    between atoms: C_10  and  C_12
REMARK   12  A    between atoms: C_11  and  C_13
REMARK   13  A    between atoms: C_12  and  C_14
REMARK                            x       y       z     vdW  Elec       q    Type
REMARK                         _______ _______ _______ _____ _____    ______ ____
ROOT
ATOM      1  C   UNL     1     -25.985 -33.809  18.524  0.00  0.00    +0.016 C 
ENDROOT
BRANCH   1   2
ATOM      2  C   UNL     1     -26.391 -34.370  17.162  0.00  0.00    +0.081 C 
BRANCH   2   3
ATOM      3  N   UNL     1     -25.219 -34.858  16.444  0.00  0.00    -0.316 NA
ATOM      4  H   UNL     1     -24.373 -34.615  16.958  0.00  0.00    +0.122 HD
BRANCH   3   5
ATOM      5  C   UNL     1     -25.160 -34.296  15.102  0.00  0.00    +0.082 C 
BRANCH   5   6
ATOM      6  C   UNL     1     -24.070 -33.231  14.975  0.00  0.00    +0.030 C 
BRANCH   6   7
ATOM      7  C   UNL     1     -22.886 -33.475  15.912  0.00  0.00    +0.079 C 
BRANCH   7   8
ATOM      8  N   UNL     1     -22.303 -32.204  16.329  0.00  0.00    -0.330 NA
ATOM      9  H   UNL     1     -21.315 -32.333  16.546  0.00  0.00    +0.118 HD
ATOM     10  H   UNL     1     -22.746 -31.897  17.194  0.00  0.00    +0.118 HD
ENDBRANCH   7   8
ENDBRANCH   6   7
ENDBRANCH   5   6
ENDBRANCH   3   5
ENDBRANCH   2   3
ENDBRANCH   1   2
BRANCH   1  11
ATOM     11  C   UNL     1     -25.396 -32.401  18.387  0.00  0.00    +0.016 C 
BRANCH  11  12
ATOM     12  C   UNL     1     -26.394 -31.371  17.852  0.00  0.00    +0.081 C 
BRANCH  12  13
ATOM     13  N   UNL     1     -26.713 -30.346  18.838  0.00  0.00    -0.316 NA
ATOM     14  H   UNL     1     -26.071 -30.412  19.627  0.00  0.00    +0.122 HD
BRANCH  13  15
ATOM     15  C   UNL     1     -28.086 -30.482  19.304  0.00  0.00    +0.082 C 
BRANCH  15  16
ATOM     16  C   UNL     1     -28.675 -29.144  19.755  0.00  0.00    +0.030 C 
BRANCH  16  17
ATOM     17  C   UNL     1     -29.729 -28.600  18.790  0.00  0.00    +0.079 C 
BRANCH  17  18
ATOM     18  N   UNL     1     -30.642 -29.664  18.388  0.00  0.00    -0.330 NA
ATOM     19  H   UNL     1     -30.148 -30.556  18.381  0.00  0.00    +0.118 HD
ATOM     20  H   UNL     1     -30.951 -29.501  17.430  0.00  0.00    +0.118 HD
ENDBRANCH  17  18
ENDBRANCH  16  17
ENDBRANCH  15  16
ENDBRANCH  13  15
ENDBRANCH  12  13
ENDBRANCH  11  12
ENDBRANCH   1  11
TORSDOF 13
ENDMDL
MODEL 5
REMARK VINA RESULT:      -3.7      3.059      4.879
REMARK  Name = 1103
REMARK  13 active torsions:
REMARK  status: ('A' for Active; 'I' for Inactive)
REMARK    1  A    between atoms: N_1  and  C_7
REMARK    2  A    between atoms: N_1  and  C_9
REMARK    3  A    between atoms: N_2  and  C_8
REMARK    4  A    between atoms: N_2  and  C_10
REMARK    5  A    between atoms: N_3  and  C_13
REMARK    6  A    between atoms: N_4  and  C_14
REMARK    7  A    between atoms: C_5  and  C_6
REMARK    8  A    between atoms: C_5  and  C_7
REMARK    9  A    between atoms: C_6  and  C_8
REMARK   10  A    between atoms: C_9  and  C_11
REMARK   11  A    between atoms: C_10  and  C_12
REMARK   12  A    between atoms: C_11  and  C_13
REMARK   13  A    between atoms: C_12  and  C_14
REMARK                            x       y       z     vdW  Elec       q    Type
REMARK                         _______ _______ _______ _____ _____    ______ ____
ROOT
ATOM      1  C   UNL     1     -25.893 -33.950  18.696  0.00  0.00    +0.016 C 
ENDROOT
BRANCH   1   2
ATOM      2  C   UNL     1     -25.704 -34.311  17.223  0.00  0.00    +0.081 C 
BRANCH   2   3
ATOM      3  N   UNL     1     -24.285 -34.391  16.898  0.00  0.00    -0.316 NA
ATOM      4  H   UNL     1     -24.036 -35.353  16.671  0.00  0.00    +0.122 HD
BRANCH   3   5
ATOM      5  C   UNL     1     -23.470 -33.922  18.010  0.00  0.00    +0.082 C 
BRANCH   5   6
ATOM      6  C   UNL     1     -22.206 -34.765  18.190  0.00  0.00    +0.030 C 
BRANCH   6   7
ATOM      7  C   UNL     1     -21.166 -34.520  17.095  0.00  0.00    +0.079 C 
BRANCH   7   8
ATOM      8  N   UNL     1     -19.875 -35.068  17.497  0.00  0.00    -0.330 NA
ATOM      9  H   UNL     1     -20.007 -35.748  18.245  0.00  0.00    +0.118 HD
ATOM     10  H   UNL     1     -19.299 -34.324  17.887  0.00  0.00    +0.118 HD
ENDBRANCH   7   8
ENDBRANCH   6   7
ENDBRANCH   5   6
ENDBRANCH   3   5
ENDBRANCH   2   3
ENDBRANCH   1   2
BRANCH   1  11
ATOM     11  C   UNL     1     -27.249 -33.277  18.929  0.00  0.00    +0.016 C 
BRANCH  11  12
ATOM     12  C   UNL     1     -27.216 -31.758  18.751  0.00  0.00    +0.081 C 
BRANCH  12  13
ATOM     13  N   UNL     1     -28.121 -31.072  19.666  0.00  0.00    -0.316 NA
ATOM     14  H   UNL     1     -29.081 -31.368  19.488  0.00  0.00    +0.122 HD
BRANCH  13  15
ATOM     15  C   UNL     1     -28.013 -29.628  19.519  0.00  0.00    +0.082 C 
BRANCH  15  16
ATOM     16  C   UNL     1     -29.359 -28.928  19.722  0.00  0.00    +0.030 C 
BRANCH  16  17
ATOM     17  C   UNL     1     -30.030 -28.530  18.407  0.00  0.00    +0.079 C 
BRANCH  17  18
ATOM     18  N   UNL     1     -29.486 -29.316  17.305  0.00  0.00    -0.330 NA
ATOM     19  H   UNL     1     -30.249 -29.729  16.769  0.00  0.00    +0.118 HD
ATOM     20  H   UNL     1     -28.945 -30.094  17.679  0.00  0.00    +0.118 HD
ENDBRANCH  17  18
ENDBRANCH  16  17
ENDBRANCH  15  16
ENDBRANCH  13  15
ENDBRANCH  12  13
ENDBRANCH  11  12
ENDBRANCH   1  11
TORSDOF 13
ENDMDL
MODEL 6
REMARK VINA RESULT:      -3.7      2.941      6.467
REMARK  Name = 1103
REMARK  13 active torsions:
REMARK  status: ('A' for Active; 'I' for Inactive)
REMARK    1  A    between atoms: N_1  and  C_7
REMARK    2  A    between atoms: N_1  and  C_9
REMARK    3  A    between atoms: N_2  and  C_8
REMARK    4  A    between atoms: N_2  and  C_10
REMARK    5  A    between atoms: N_3  and  C_13
REMARK    6  A    between atoms: N_4  and  C_14
REMARK    7  A    between atoms: C_5  and  C_6
REMARK    8  A    between atoms: C_5  and  C_7
REMARK    9  A    between atoms: C_6  and  C_8
REMARK   10  A    between atoms: C_9  and  C_11
REMARK   11  A    between atoms: C_10  and  C_12
REMARK   12  A    between atoms: C_11  and  C_13
REMARK   13  A    between atoms: C_12  and  C_14
REMARK                            x       y       z     vdW  Elec       q    Type
REMARK                         _______ _______ _______ _____ _____    ______ ____
ROOT
ATOM      1  C   UNL     1     -27.470 -31.995  18.458  0.00  0.00    +0.016 C 
ENDROOT
BRANCH   1   2
ATOM      2  C   UNL     1     -28.657 -31.397  19.212  0.00  0.00    +0.081 C 
BRANCH   2   3
ATOM      3  N   UNL     1     -28.206 -30.347  20.118  0.00  0.00    -0.316 NA
ATOM      4  H   UNL     1     -28.249 -30.679  21.081  0.00  0.00    +0.122 HD
BRANCH   3   5
ATOM      5  C   UNL     1     -29.021 -29.149  19.973  0.00  0.00    +0.082 C 
BRANCH   5   6
ATOM      6  C   UNL     1     -29.552 -28.989  18.547  0.00  0.00    +0.030 C 
BRANCH   6   7
ATOM      7  C   UNL     1     -30.534 -27.824  18.404  0.00  0.00    +0.079 C 
BRANCH   7   8
ATOM      8  N   UNL     1     -31.887 -28.329  18.197  0.00  0.00    -0.330 NA
ATOM      9  H   UNL     1     -32.129 -28.268  17.209  0.00  0.00    +0.118 HD
ATOM     10  H   UNL     1     -32.550 -27.732  18.690  0.00  0.00    +0.118 HD
ENDBRANCH   7   8
ENDBRANCH   6   7
ENDBRANCH   5   6
ENDBRANCH   3   5
ENDBRANCH   2   3
ENDBRANCH   1   2
BRANCH   1  11
ATOM     11  C   UNL     1     -27.249 -33.459  18.852  0.00  0.00    +0.016 C 
BRANCH  11  12
ATOM     12  C   UNL     1     -25.799 -33.921  18.693  0.00  0.00    +0.081 C 
BRANCH  12  13
ATOM     13  N   UNL     1     -25.514 -34.400  17.345  0.00  0.00    -0.316 NA
ATOM     14  H   UNL     1     -25.227 -35.378  17.379  0.00  0.00    +0.122 HD
BRANCH  13  15
ATOM     15  C   UNL     1     -24.471 -33.600  16.720  0.00  0.00    +0.082 C 
BRANCH  15  16
ATOM     16  C   UNL     1     -23.439 -33.105  17.737  0.00  0.00    +0.030 C 
BRANCH  16  17
ATOM     17  C   UNL     1     -22.077 -33.781  17.582  0.00  0.00    +0.079 C 
BRANCH  17  18
ATOM     18  N   UNL     1     -21.938 -34.865  18.549  0.00  0.00    -0.330 NA
ATOM     19  H   UNL     1     -21.104 -34.715  19.115  0.00  0.00    +0.118 HD
ATOM     20  H   UNL     1     -21.793 -35.744  18.053  0.00  0.00    +0.118 HD
ENDBRANCH  17  18
ENDBRANCH  16  17
ENDBRANCH  15  16
ENDBRANCH  13  15
ENDBRANCH  12  13
ENDBRANCH  11  12
ENDBRANCH   1  11
TORSDOF 13
ENDMDL
MODEL 7
REMARK VINA RESULT:      -3.7      2.662      3.566
REMARK  Name = 1103
REMARK  13 active torsions:
REMARK  status: ('A' for Active; 'I' for Inactive)
REMARK    1  A    between atoms: N_1  and  C_7
REMARK    2  A    between atoms: N_1  and  C_9
REMARK    3  A    between atoms: N_2  and  C_8
REMARK    4  A    between atoms: N_2  and  C_10
REMARK    5  A    between atoms: N_3  and  C_13
REMARK    6  A    between atoms: N_4  and  C_14
REMARK    7  A    between atoms: C_5  and  C_6
REMARK    8  A    between atoms: C_5  and  C_7
REMARK    9  A    between atoms: C_6  and  C_8
REMARK   10  A    between atoms: C_9  and  C_11
REMARK   11  A    between atoms: C_10  and  C_12
REMARK   12  A    between atoms: C_11  and  C_13
REMARK   13  A    between atoms: C_12  and  C_14
REMARK                            x       y       z     vdW  Elec       q    Type
REMARK                         _______ _______ _______ _____ _____    ______ ____
ROOT
ATOM      1  C   UNL     1     -23.199 -33.055  18.554  0.00  0.00    +0.016 C 
ENDROOT
BRANCH   1   2
ATOM      2  C   UNL     1     -22.687 -34.459  18.237  0.00  0.00    +0.081 C 
BRANCH   2   3
ATOM      3  N   UNL     1     -21.235 -34.452  18.104  0.00  0.00    -0.316 NA
ATOM      4  H   UNL     1     -20.825 -33.845  18.813  0.00  0.00    +0.122 HD
BRANCH   3   5
ATOM      5  C   UNL     1     -20.837 -34.000  16.778  0.00  0.00    +0.082 C 
BRANCH   5   6
ATOM      6  C   UNL     1     -19.353 -33.631  16.721  0.00  0.00    +0.030 C 
BRANCH   6   7
ATOM      7  C   UNL     1     -18.834 -33.468  15.291  0.00  0.00    +0.079 C 
BRANCH   7   8
ATOM      8  N   UNL     1     -19.869 -32.885  14.443  0.00  0.00    -0.330 NA
ATOM      9  H   UNL     1     -19.536 -32.006  14.050  0.00  0.00    +0.118 HD
ATOM     10  H   UNL     1     -20.681 -32.652  15.013  0.00  0.00    +0.118 HD
ENDBRANCH   7   8
ENDBRANCH   6   7
ENDBRANCH   5   6
ENDBRANCH   3   5
ENDBRANCH   2   3
ENDBRANCH   1   2
BRANCH   1  11
ATOM     11  C   UNL     1     -24.581 -32.818  17.935  0.00  0.00    +0.016 C 
BRANCH  11  12
ATOM     12  C   UNL     1     -24.785 -33.542  16.603  0.00  0.00    +0.081 C 
BRANCH  12  13
ATOM     13  N   UNL     1     -26.170 -33.947  16.399  0.00  0.00    -0.316 NA
ATOM     14  H   UNL     1     -26.654 -33.253  15.831  0.00  0.00    +0.122 HD
BRANCH  13  15
ATOM     15  C   UNL     1     -26.857 -34.109  17.673  0.00  0.00    +0.082 C 
BRANCH  15  16
ATOM     16  C   UNL     1     -28.158 -33.305  17.730  0.00  0.00    +0.030 C 
BRANCH  16  17
ATOM     17  C   UNL     1     -28.349 -32.569  19.056  0.00  0.00    +0.079 C 
BRANCH  17  18
ATOM     18  N   UNL     1     -27.723 -33.316  20.142  0.00  0.00    -0.330 NA
ATOM     19  H   UNL     1     -28.245 -34.175  20.313  0.00  0.00    +0.118 HD
ATOM     20  H   UNL     1     -27.777 -32.772  21.002  0.00  0.00    +0.118 HD
ENDBRANCH  17  18
ENDBRANCH  16  17
ENDBRANCH  15  16
ENDBRANCH  13  15
ENDBRANCH  12  13
ENDBRANCH  11  12
ENDBRANCH   1  11
TORSDOF 13
ENDMDL
MODEL 8
REMARK VINA RESULT:      -3.7      1.987      5.767
REMARK  Name = 1103
REMARK  13 active torsions:
REMARK  status: ('A' for Active; 'I' for Inactive)
REMARK    1  A    between atoms: N_1  and  C_7
REMARK    2  A    between atoms: N_1  and  C_9
REMARK    3  A    between atoms: N_2  and  C_8
REMARK    4  A    between atoms: N_2  and  C_10
REMARK    5  A    between atoms: N_3  and  C_13
REMARK    6  A    between atoms: N_4  and  C_14
REMARK    7  A    between atoms: C_5  and  C_6
REMARK    8  A    between atoms: C_5  and  C_7
REMARK    9  A    between atoms: C_6  and  C_8
REMARK   10  A    between atoms: C_9  and  C_11
REMARK   11  A    between atoms: C_10  and  C_12
REMARK   12  A    between atoms: C_11  and  C_13
REMARK   13  A    between atoms: C_12  and  C_14
REMARK                            x       y       z     vdW  Elec       q    Type
REMARK                         _______ _______ _______ _____ _____    ______ ____
ROOT
ATOM      1  C   UNL     1     -26.449 -34.018  18.667  0.00  0.00    +0.016 C 
ENDROOT
BRANCH   1   2
ATOM      2  C   UNL     1     -27.732 -33.378  18.138  0.00  0.00    +0.081 C 
BRANCH   2   3
ATOM      3  N   UNL     1     -28.583 -32.957  19.245  0.00  0.00    -0.316 NA
ATOM      4  H   UNL     1     -29.090 -33.759  19.616  0.00  0.00    +0.122 HD
BRANCH   3   5
ATOM      5  C   UNL     1     -29.526 -31.934  18.815  0.00  0.00    +0.082 C 
BRANCH   5   6
ATOM      6  C   UNL     1     -28.815 -30.702  18.249  0.00  0.00    +0.030 C 
BRANCH   6   7
ATOM      7  C   UNL     1     -28.272 -29.775  19.337  0.00  0.00    +0.079 C 
BRANCH   7   8
ATOM      8  N   UNL     1     -26.812 -29.796  19.333  0.00  0.00    -0.330 NA
ATOM      9  H   UNL     1     -26.461 -29.086  18.692  0.00  0.00    +0.118 HD
ATOM     10  H   UNL     1     -26.489 -30.692  18.971  0.00  0.00    +0.118 HD
ENDBRANCH   7   8
ENDBRANCH   6   7
ENDBRANCH   5   6
ENDBRANCH   3   5
ENDBRANCH   2   3
ENDBRANCH   1   2
BRANCH   1  11
ATOM     11  C   UNL     1     -25.245 -33.641  17.797  0.00  0.00    +0.016 C 
BRANCH  11  12
ATOM     12  C   UNL     1     -25.244 -32.176  17.357  0.00  0.00    +0.081 C 
BRANCH  12  13
ATOM     13  N   UNL     1     -25.038 -32.029  15.921  0.00  0.00    -0.316 NA
ATOM     14  H   UNL     1     -25.758 -32.542  15.414  0.00  0.00    +0.122 HD
BRANCH  13  15
ATOM     15  C   UNL     1     -23.720 -32.511  15.534  0.00  0.00    +0.082 C 
BRANCH  15  16
ATOM     16  C   UNL     1     -23.417 -32.231  14.060  0.00  0.00    +0.030 C 
BRANCH  16  17
ATOM     17  C   UNL     1     -24.182 -31.027  13.511  0.00  0.00    +0.079 C 
BRANCH  17  18
ATOM     18  N   UNL     1     -23.252 -29.977  13.113  0.00  0.00    -0.330 NA
ATOM     19  H   UNL     1     -23.335 -29.185  13.751  0.00  0.00    +0.118 HD
ATOM     20  H   UNL     1     -23.509 -29.628  12.190  0.00  0.00    +0.118 HD
ENDBRANCH  17  18
ENDBRANCH  16  17
ENDBRANCH  15  16
ENDBRANCH  13  15
ENDBRANCH  12  13
ENDBRANCH  11  12
ENDBRANCH   1  11
TORSDOF 13
ENDMDL
MODEL 9
REMARK VINA RESULT:      -3.7      1.379      4.425
REMARK  Name = 1103
REMARK  13 active torsions:
REMARK  status: ('A' for Active; 'I' for Inactive)
REMARK    1  A    between atoms: N_1  and  C_7
REMARK    2  A    between atoms: N_1  and  C_9
REMARK    3  A    between atoms: N_2  and  C_8
REMARK    4  A    between atoms: N_2  and  C_10
REMARK    5  A    between atoms: N_3  and  C_13
REMARK    6  A    between atoms: N_4  and  C_14
REMARK    7  A    between atoms: C_5  and  C_6
REMARK    8  A    between atoms: C_5  and  C_7
REMARK    9  A    between atoms: C_6  and  C_8
REMARK   10  A    between atoms: C_9  and  C_11
REMARK   11  A    between atoms: C_10  and  C_12
REMARK   12  A    between atoms: C_11  and  C_13
REMARK   13  A    between atoms: C_12  and  C_14
REMARK                            x       y       z     vdW  Elec       q    Type
REMARK                         _______ _______ _______ _____ _____    ______ ____
ROOT
ATOM      1  C   UNL     1     -22.191 -33.723  18.658  0.00  0.00    +0.016 C 
ENDROOT
BRANCH   1   2
ATOM      2  C   UNL     1     -23.640 -33.234  18.672  0.00  0.00    +0.081 C 
BRANCH   2   3
ATOM      3  N   UNL     1     -24.539 -34.299  18.242  0.00  0.00    -0.316 NA
ATOM      4  H   UNL     1     -24.049 -34.929  17.607  0.00  0.00    +0.122 HD
BRANCH   3   5
ATOM      5  C   UNL     1     -25.715 -33.750  17.582  0.00  0.00    +0.082 C 
BRANCH   5   6
ATOM      6  C   UNL     1     -26.523 -32.844  18.514  0.00  0.00    +0.030 C 
BRANCH   6   7
ATOM      7  C   UNL     1     -26.788 -31.461  17.917  0.00  0.00    +0.079 C 
BRANCH   7   8
ATOM      8  N   UNL     1     -26.107 -30.436  18.701  0.00  0.00    -0.330 NA
ATOM      9  H   UNL     1     -25.254 -30.822  19.103  0.00  0.00    +0.118 HD
ATOM     10  H   UNL     1     -26.696 -30.165  19.487  0.00  0.00    +0.118 HD
ENDBRANCH   7   8
ENDBRANCH   6   7
ENDBRANCH   5   6
ENDBRANCH   3   5
ENDBRANCH   2   3
ENDBRANCH   1   2
BRANCH   1  11
ATOM     11  C   UNL     1     -21.923 -34.619  17.445  0.00  0.00    +0.016 C 
BRANCH  11  12
ATOM     12  C   UNL     1     -20.918 -34.025  16.457  0.00  0.00    +0.081 C 
BRANCH  12  13
ATOM     13  N   UNL     1     -21.419 -32.816  15.816  0.00  0.00    -0.316 NA
ATOM     14  H   UNL     1     -22.126 -32.378  16.408  0.00  0.00    +0.122 HD
BRANCH  13  15
ATOM     15  C   UNL     1     -21.986 -33.117  14.509  0.00  0.00    +0.082 C 
BRANCH  15  16
ATOM     16  C   UNL     1     -23.514 -33.175  14.546  0.00  0.00    +0.030 C 
BRANCH  16  17
ATOM     17  C   UNL     1     -24.167 -31.794  14.492  0.00  0.00    +0.079 C 
BRANCH  17  18
ATOM     18  N   UNL     1     -25.620 -31.923  14.468  0.00  0.00    -0.330 NA
ATOM     19  H   UNL     1     -25.936 -32.056  13.508  0.00  0.00    +0.118 HD
ATOM     20  H   UNL     1     -26.042 -31.053  14.790  0.00  0.00    +0.118 HD
ENDBRANCH  17  18
ENDBRANCH  16  17
ENDBRANCH  15  16
ENDBRANCH  13  15
ENDBRANCH  12  13
ENDBRANCH  11  12
ENDBRANCH   1  11
TORSDOF 13
ENDMDL
