REMARK SMILES CCC[NH2+]C(C)(C)COC(=O)c1ccccc1
REMARK SMILES IDX 5 1 8 2 9 5 10 6 11 7 12 8 13 9 17 10 14 11 16 13 15 15 4 19
REMARK SMILES IDX 3 22 2 25 1 28 6 32 7 36
REMARK H PARENT 8 3 8 4 13 12 17 14 14 16 16 17 15 18 4 20 4 21 3 23 3 24 2 26
REMARK H PARENT 2 27 1 29 1 30 1 31 6 33 6 34 6 35 7 37 7 38 7 39
REMARK Flexibility Score: inf
ROOT
ATOM      1  C   UNL     1      -0.240  -0.105  -0.088  1.00  0.00     0.125 C 
ENDROOT
BRANCH   1   2
ATOM      2  C   UNL     1      -0.883   1.306  -0.064  1.00  0.00     0.145 C 
ATOM      3  H   UNL     1      -0.726   1.804  -1.022  1.00  0.00     0.077 H 
ATOM      4  H   UNL     1      -1.964   1.215   0.061  1.00  0.00     0.077 H 
BRANCH   2   5
ATOM      5  O   UNL     1      -0.356   2.120   0.983  1.00  0.00    -0.455 OA
BRANCH   5   6
ATOM      6  C   UNL     1      -0.739   3.413   1.130  1.00  0.00     0.338 C 
ATOM      7  O   UNL     1      -1.555   3.969   0.389  1.00  0.00    -0.246 OA
BRANCH   6   8
ATOM      8  C   UNL     1      -0.060   4.103   2.277  1.00  0.00     0.060 A 
ATOM      9  C   UNL     1       0.844   3.431   3.118  1.00  0.00    -0.048 A 
ATOM     10  C   UNL     1      -0.335   5.457   2.521  1.00  0.00    -0.048 A 
ATOM     11  C   UNL     1       1.456   4.100   4.174  1.00  0.00    -0.061 A 
ATOM     12  H   UNL     1       1.084   2.388   2.969  1.00  0.00     0.063 H 
ATOM     13  C   UNL     1       0.278   6.124   3.578  1.00  0.00    -0.061 A 
ATOM     14  H   UNL     1      -1.025   6.007   1.896  1.00  0.00     0.063 H 
ATOM     15  C   UNL     1       1.171   5.444   4.400  1.00  0.00    -0.062 A 
ATOM     16  H   UNL     1       2.150   3.579   4.817  1.00  0.00     0.062 H 
ATOM     17  H   UNL     1       0.061   7.167   3.759  1.00  0.00     0.062 H 
ATOM     18  H   UNL     1       1.645   5.962   5.220  1.00  0.00     0.062 H 
ENDBRANCH   6   8
ENDBRANCH   5   6
ENDBRANCH   2   5
ENDBRANCH   1   2
BRANCH   1  19
ATOM     19  N   UNL     1       1.305   0.017  -0.107  1.00  0.00    -0.339 N 
ATOM     20  H   UNL     1       1.580   0.471   0.752  1.00  0.00     0.346 HD
ATOM     21  H   UNL     1       1.693  -0.916  -0.093  1.00  0.00     0.346 HD
BRANCH  19  22
ATOM     22  C   UNL     1       1.956   0.790  -1.270  1.00  0.00     0.076 C 
ATOM     23  H   UNL     1       1.699   0.251  -2.182  1.00  0.00     0.092 H 
ATOM     24  H   UNL     1       1.506   1.783  -1.274  1.00  0.00     0.092 H 
BRANCH  22  25
ATOM     25  C   UNL     1       3.472   0.851  -1.042  1.00  0.00    -0.006 C 
ATOM     26  H   UNL     1       3.682   1.335  -0.086  1.00  0.00     0.032 H 
ATOM     27  H   UNL     1       3.876  -0.160  -0.970  1.00  0.00     0.032 H 
BRANCH  25  28
ATOM     28  C   UNL     1       4.202   1.607  -2.159  1.00  0.00    -0.060 C 
ATOM     29  H   UNL     1       5.276   1.635  -1.972  1.00  0.00     0.023 H 
ATOM     30  H   UNL     1       3.854   2.638  -2.234  1.00  0.00     0.023 H 
ATOM     31  H   UNL     1       4.048   1.129  -3.127  1.00  0.00     0.023 H 
ENDBRANCH  25  28
ENDBRANCH  22  25
ENDBRANCH  19  22
ENDBRANCH   1  19
BRANCH   1  32
ATOM     32  C   UNL     1      -0.594  -0.891   1.194  1.00  0.00    -0.006 C 
ATOM     33  H   UNL     1      -1.672  -1.027   1.285  1.00  0.00     0.030 H 
ATOM     34  H   UNL     1      -0.259  -0.376   2.096  1.00  0.00     0.030 H 
ATOM     35  H   UNL     1      -0.144  -1.885   1.200  1.00  0.00     0.030 H 
ENDBRANCH   1  32
BRANCH   1  36
ATOM     36  C   UNL     1      -0.696  -0.898  -1.334  1.00  0.00    -0.006 C 
ATOM     37  H   UNL     1      -1.770  -1.087  -1.302  1.00  0.00     0.030 H 
ATOM     38  H   UNL     1      -0.201  -1.868  -1.405  1.00  0.00     0.030 H 
ATOM     39  H   UNL     1      -0.503  -0.359  -2.262  1.00  0.00     0.030 H 
ENDBRANCH   1  36
TORSDOF 10
