REMARK SMILES CCCc1c(OCCCCc2nnn[nH]2)ccc(C(C)=O)c1[O-]
REMARK SMILES IDX 7 1 6 4 5 5 18 6 22 7 17 8 23 9 4 10 16 11 19 14 21 15 20 16
REMARK SMILES IDX 3 20 2 23 1 26 8 30 9 33 10 36 11 39 12 40 15 41 13 42 14 43
REMARK H PARENT 7 2 7 3 17 12 16 13 20 17 20 18 20 19 3 21 3 22 2 24 2 25 1 27
REMARK H PARENT 1 28 1 29 8 31 8 32 9 34 9 35 10 37 10 38 15 44
REMARK Flexibility Score: inf
ROOT
ATOM      1  C   UNL     1       1.886  -1.333   0.177  1.00  0.00     0.088 C 
ATOM      2  H   UNL     1       1.685  -1.867   1.107  1.00  0.00     0.071 H 
ATOM      3  H   UNL     1       1.560  -1.968  -0.650  1.00  0.00     0.071 H 
ENDROOT
BRANCH   1   4
ATOM      4  O   UNL     1       1.188  -0.092   0.164  1.00  0.00    -0.493 OA
BRANCH   4   5
ATOM      5  C   UNL     1      -0.196  -0.067   0.200  1.00  0.00     0.121 A 
ATOM      6  C   UNL     1      -3.026   0.069   0.222  1.00  0.00     0.010 A 
ATOM      7  C   UNL     1      -2.253   1.262   0.107  1.00  0.00    -0.091 A 
ATOM      8  C   UNL     1      -2.354  -1.153   0.341  1.00  0.00    -0.048 A 
ATOM      9  O   UNL     1      -2.816   2.410  -0.031  1.00  0.00    -0.872 OA
ATOM     10  C   UNL     1      -0.833   1.184   0.105  1.00  0.00    -0.013 A 
ATOM     11  C   UNL     1      -0.970  -1.224   0.321  1.00  0.00    -0.019 A 
ATOM     12  H   UNL     1      -2.895  -2.082   0.458  1.00  0.00     0.063 H 
ATOM     13  H   UNL     1      -0.515  -2.198   0.410  1.00  0.00     0.066 H 
BRANCH   6  14
ATOM     14  C   UNL     1      -4.536  -0.001   0.304  1.00  0.00     0.159 C 
ATOM     15  O   UNL     1      -5.251   0.874   0.794  1.00  0.00    -0.295 OA
BRANCH  14  16
ATOM     16  C   UNL     1      -5.219  -1.149  -0.443  1.00  0.00    -0.001 C 
ATOM     17  H   UNL     1      -5.178  -2.068   0.142  1.00  0.00     0.031 H 
ATOM     18  H   UNL     1      -6.261  -0.908  -0.658  1.00  0.00     0.031 H 
ATOM     19  H   UNL     1      -4.720  -1.327  -1.395  1.00  0.00     0.031 H 
ENDBRANCH  14  16
ENDBRANCH   6  14
BRANCH  10  20
ATOM     20  C   UNL     1       0.076   2.429  -0.017  1.00  0.00    -0.025 C 
ATOM     21  H   UNL     1       0.964   2.296   0.604  1.00  0.00     0.032 H 
ATOM     22  H   UNL     1      -0.404   3.313   0.406  1.00  0.00     0.032 H 
BRANCH  20  23
ATOM     23  C   UNL     1       0.500   2.709  -1.470  1.00  0.00    -0.052 C 
ATOM     24  H   UNL     1      -0.387   2.890  -2.081  1.00  0.00     0.027 H 
ATOM     25  H   UNL     1       0.985   1.827  -1.889  1.00  0.00     0.027 H 
BRANCH  23  26
ATOM     26  C   UNL     1       1.452   3.906  -1.597  1.00  0.00    -0.065 C 
ATOM     27  H   UNL     1       1.729   4.074  -2.638  1.00  0.00     0.023 H 
ATOM     28  H   UNL     1       2.371   3.740  -1.033  1.00  0.00     0.023 H 
ATOM     29  H   UNL     1       0.990   4.821  -1.225  1.00  0.00     0.023 H 
ENDBRANCH  23  26
ENDBRANCH  20  23
ENDBRANCH  10  20
ENDBRANCH   4   5
ENDBRANCH   1   4
BRANCH   1  30
ATOM     30  C   UNL     1       3.394  -1.063   0.058  1.00  0.00    -0.018 C 
ATOM     31  H   UNL     1       3.720  -0.471   0.915  1.00  0.00     0.030 H 
ATOM     32  H   UNL     1       3.924  -2.013   0.130  1.00  0.00     0.030 H 
BRANCH  30  33
ATOM     33  C   UNL     1       3.789  -0.343  -1.249  1.00  0.00    -0.043 C 
ATOM     34  H   UNL     1       3.458  -0.931  -2.106  1.00  0.00     0.027 H 
ATOM     35  H   UNL     1       3.250   0.604  -1.313  1.00  0.00     0.027 H 
BRANCH  33  36
ATOM     36  C   UNL     1       5.297  -0.049  -1.375  1.00  0.00     0.009 C 
ATOM     37  H   UNL     1       5.470   0.532  -2.281  1.00  0.00     0.035 H 
ATOM     38  H   UNL     1       5.601   0.604  -0.555  1.00  0.00     0.035 H 
BRANCH  36  39
ATOM     39  C   UNL     1       6.151  -1.302  -1.403  1.00  0.00     0.148 A 
ATOM     40  N   UNL     1       7.014  -1.665  -0.485  1.00  0.00    -0.114 NA
ATOM     41  N   UNL     1       6.109  -2.246  -2.396  1.00  0.00    -0.243 N 
ATOM     42  N   UNL     1       7.533  -2.881  -0.925  1.00  0.00    -0.024 NA
ATOM     43  N   UNL     1       6.957  -3.240  -2.130  1.00  0.00    -0.048 NA
ATOM     44  H   UNL     1       5.525  -2.220  -3.220  1.00  0.00     0.193 HD
ENDBRANCH  36  39
ENDBRANCH  33  36
ENDBRANCH  30  33
ENDBRANCH   1  30
TORSDOF 11
