REMARK SMILES CCCCCCCCCCCC(=O)N(C)CC(=O)[O-]
REMARK SMILES IDX 8 1 9 4 10 7 11 10 12 13 13 14 14 15 16 16 17 19 18 20 19 21
REMARK SMILES IDX 15 22 7 26 6 29 5 32 4 35 3 38 2 41 1 44
REMARK H PARENT 8 2 8 3 9 5 9 6 10 8 10 9 11 11 11 12 16 17 16 18 15 23 15 24
REMARK H PARENT 15 25 7 27 7 28 6 30 6 31 5 33 5 34 4 36 4 37 3 39 3 40 2 42
REMARK H PARENT 2 43 1 45 1 46 1 47
REMARK Flexibility Score: inf
ROOT
ATOM      1  C   UNL     1       1.438  -0.039  -0.071  1.00  0.00    -0.053 C 
ATOM      2  H   UNL     1       1.838   0.444  -0.964  1.00  0.00     0.027 H 
ATOM      3  H   UNL     1       1.832   0.520   0.780  1.00  0.00     0.027 H 
ENDROOT
BRANCH   1   4
ATOM      4  C   UNL     1      -0.097   0.063  -0.080  1.00  0.00    -0.053 C 
ATOM      5  H   UNL     1      -0.496  -0.418   0.814  1.00  0.00     0.027 H 
ATOM      6  H   UNL     1      -0.493  -0.495  -0.930  1.00  0.00     0.027 H 
BRANCH   4   7
ATOM      7  C   UNL     1      -0.600   1.517  -0.144  1.00  0.00    -0.044 C 
ATOM      8  H   UNL     1      -0.187   2.071   0.702  1.00  0.00     0.027 H 
ATOM      9  H   UNL     1      -0.210   1.989  -1.047  1.00  0.00     0.027 H 
BRANCH   7  10
ATOM     10  C   UNL     1      -2.142   1.617  -0.125  1.00  0.00     0.027 C 
ATOM     11  H   UNL     1      -2.541   1.075  -0.984  1.00  0.00     0.037 H 
ATOM     12  H   UNL     1      -2.510   1.134   0.782  1.00  0.00     0.037 H 
BRANCH  10  13
ATOM     13  C   UNL     1      -2.700   3.058  -0.162  1.00  0.00     0.222 C 
ATOM     14  O   UNL     1      -1.910   4.002  -0.253  1.00  0.00    -0.275 OA
BRANCH  13  15
ATOM     15  N   UNL     1      -4.045   3.249  -0.088  1.00  0.00    -0.340 N 
BRANCH  15  16
ATOM     16  C   UNL     1      -4.643   4.604  -0.084  1.00  0.00     0.060 C 
ATOM     17  H   UNL     1      -4.028   5.270  -0.691  1.00  0.00     0.056 H 
ATOM     18  H   UNL     1      -5.600   4.549  -0.605  1.00  0.00     0.056 H 
BRANCH  16  19
ATOM     19  C   UNL     1      -4.864   5.230   1.318  1.00  0.00     0.061 C 
ATOM     20  O   UNL     1      -5.363   6.376   1.319  1.00  0.00    -0.548 OA
ATOM     21  O   UNL     1      -4.558   4.598   2.357  1.00  0.00    -0.548 OA
ENDBRANCH  16  19
ENDBRANCH  15  16
BRANCH  15  22
ATOM     22  C   UNL     1      -5.031   2.165   0.002  1.00  0.00     0.010 C 
ATOM     23  H   UNL     1      -5.601   2.257   0.927  1.00  0.00     0.046 H 
ATOM     24  H   UNL     1      -5.733   2.233  -0.829  1.00  0.00     0.046 H 
ATOM     25  H   UNL     1      -4.601   1.165  -0.019  1.00  0.00     0.046 H 
ENDBRANCH  15  22
ENDBRANCH  13  15
ENDBRANCH  10  13
ENDBRANCH   7  10
ENDBRANCH   4   7
ENDBRANCH   1   4
BRANCH   1  26
ATOM     26  C   UNL     1       1.946  -1.490  -0.004  1.00  0.00    -0.053 C 
ATOM     27  H   UNL     1       1.535  -1.968   0.886  1.00  0.00     0.027 H 
ATOM     28  H   UNL     1       1.560  -2.048  -0.858  1.00  0.00     0.027 H 
BRANCH  26  29
ATOM     29  C   UNL     1       3.484  -1.585   0.018  1.00  0.00    -0.053 C 
ATOM     30  H   UNL     1       3.882  -1.056  -0.849  1.00  0.00     0.027 H 
ATOM     31  H   UNL     1       3.872  -1.059   0.892  1.00  0.00     0.027 H 
BRANCH  29  32
ATOM     32  C   UNL     1       4.036  -3.025   0.002  1.00  0.00    -0.053 C 
ATOM     33  H   UNL     1       3.673  -3.543  -0.886  1.00  0.00     0.027 H 
ATOM     34  H   UNL     1       5.120  -2.974  -0.105  1.00  0.00     0.027 H 
BRANCH  32  35
ATOM     35  C   UNL     1       3.696  -3.849   1.259  1.00  0.00    -0.053 C 
ATOM     36  H   UNL     1       4.007  -3.299   2.148  1.00  0.00     0.027 H 
ATOM     37  H   UNL     1       2.615  -3.973   1.337  1.00  0.00     0.027 H 
BRANCH  35  38
ATOM     38  C   UNL     1       4.360  -5.238   1.262  1.00  0.00    -0.054 C 
ATOM     39  H   UNL     1       4.056  -5.787   0.370  1.00  0.00     0.027 H 
ATOM     40  H   UNL     1       5.442  -5.121   1.196  1.00  0.00     0.027 H 
BRANCH  38  41
ATOM     41  C   UNL     1       4.012  -6.064   2.513  1.00  0.00    -0.056 C 
ATOM     42  H   UNL     1       4.310  -5.516   3.409  1.00  0.00     0.026 H 
ATOM     43  H   UNL     1       2.931  -6.193   2.579  1.00  0.00     0.026 H 
BRANCH  41  44
ATOM     44  C   UNL     1       4.683  -7.444   2.525  1.00  0.00    -0.065 C 
ATOM     45  H   UNL     1       4.414  -8.000   3.424  1.00  0.00     0.023 H 
ATOM     46  H   UNL     1       5.770  -7.357   2.504  1.00  0.00     0.023 H 
ATOM     47  H   UNL     1       4.378  -8.040   1.664  1.00  0.00     0.023 H 
ENDBRANCH  41  44
ENDBRANCH  38  41
ENDBRANCH  35  38
ENDBRANCH  32  35
ENDBRANCH  29  32
ENDBRANCH  26  29
ENDBRANCH   1  26
TORSDOF 15
