REMARK SMILES CCc1ccc(CCOc2ccc(C[C@@H]3SC([O-])=NC3=O)cc2)nc1
REMARK SMILES IDX 8 1 9 4 10 5 13 6 12 7 22 8 11 9 23 11 14 15 15 18 16 19
REMARK SMILES IDX 17 20 18 21 19 22 20 23 21 25 7 26 6 29 24 30 5 31 25 32
REMARK SMILES IDX 4 33 3 35 2 38 1 41
REMARK H PARENT 8 2 8 3 12 10 22 12 11 13 23 14 14 16 14 17 15 24 7 27 7 28
REMARK H PARENT 5 34 25 36 4 37 2 39 2 40 1 42 1 43 1 44
REMARK Flexibility Score: inf
ROOT
ATOM      1  C   UNL     1       1.686   0.279  -0.044  1.00  0.00     0.094 C 
ATOM      2  H   UNL     1       2.157   0.816   0.782  1.00  0.00     0.071 H 
ATOM      3  H   UNL     1       2.030   0.718  -0.983  1.00  0.00     0.071 H 
ENDROOT
BRANCH   1   4
ATOM      4  O   UNL     1       0.269   0.387   0.052  1.00  0.00    -0.493 OA
BRANCH   4   5
ATOM      5  C   UNL     1      -0.321   1.636   0.015  1.00  0.00     0.119 A 
ATOM      6  C   UNL     1      -1.688   4.077  -0.044  1.00  0.00    -0.046 A 
ATOM      7  C   UNL     1      -2.395   2.882   0.090  1.00  0.00    -0.055 A 
ATOM      8  C   UNL     1      -0.296   4.055  -0.147  1.00  0.00    -0.055 A 
ATOM      9  C   UNL     1      -1.712   1.670   0.118  1.00  0.00    -0.020 A 
ATOM     10  H   UNL     1      -3.473   2.891   0.169  1.00  0.00     0.063 H 
ATOM     11  C   UNL     1       0.386   2.842  -0.119  1.00  0.00    -0.020 A 
ATOM     12  H   UNL     1       0.258   4.976  -0.255  1.00  0.00     0.063 H 
ATOM     13  H   UNL     1      -2.267   0.749   0.221  1.00  0.00     0.066 H 
ATOM     14  H   UNL     1       1.462   2.858  -0.203  1.00  0.00     0.066 H 
BRANCH   6  15
ATOM     15  C   UNL     1      -2.438   5.404  -0.076  1.00  0.00    -0.006 C 
ATOM     16  H   UNL     1      -3.203   5.366   0.702  1.00  0.00     0.033 H 
ATOM     17  H   UNL     1      -1.768   6.211   0.227  1.00  0.00     0.033 H 
BRANCH  15  18
ATOM     18  C   UNL     1      -3.081   5.719  -1.450  1.00  0.00     0.095 C 
ATOM     19  S   UNL     1      -1.863   6.002  -2.755  1.00  0.00    -0.108 SA
ATOM     20  C   UNL     1      -2.569   7.616  -3.000  1.00  0.00     0.027 C 
ATOM     21  O   UNL     1      -2.078   8.358  -3.860  1.00  0.00    -0.854 OA
ATOM     22  N   UNL     1      -3.555   7.952  -2.285  1.00  0.00    -0.222 NA
ATOM     23  C   UNL     1      -3.945   6.987  -1.387  1.00  0.00     0.259 C 
ATOM     24  H   UNL     1      -3.724   4.896  -1.766  1.00  0.00     0.053 H 
ATOM     25  O   UNL     1      -4.892   7.103  -0.610  1.00  0.00    -0.271 OA
ENDBRANCH  15  18
ENDBRANCH   6  15
ENDBRANCH   4   5
ENDBRANCH   1   4
BRANCH   1  26
ATOM     26  C   UNL     1       2.070  -1.208   0.014  1.00  0.00     0.024 C 
ATOM     27  H   UNL     1       1.667  -1.652   0.926  1.00  0.00     0.037 H 
ATOM     28  H   UNL     1       1.597  -1.747  -0.808  1.00  0.00     0.037 H 
BRANCH  26  29
ATOM     29  C   UNL     1       3.573  -1.441  -0.045  1.00  0.00     0.044 A 
ATOM     30  N   UNL     1       4.175  -1.172  -1.235  1.00  0.00    -0.261 NA
ATOM     31  C   UNL     1       4.279  -1.899   1.071  1.00  0.00    -0.040 A 
ATOM     32  C   UNL     1       5.516  -1.363  -1.327  1.00  0.00     0.030 A 
ATOM     33  C   UNL     1       5.658  -2.088   0.957  1.00  0.00    -0.056 A 
ATOM     34  H   UNL     1       3.777  -2.101   2.006  1.00  0.00     0.064 H 
ATOM     35  C   UNL     1       6.296  -1.819  -0.259  1.00  0.00    -0.030 A 
ATOM     36  H   UNL     1       5.963  -1.138  -2.284  1.00  0.00     0.084 H 
ATOM     37  H   UNL     1       6.224  -2.439   1.808  1.00  0.00     0.063 H 
BRANCH  35  38
ATOM     38  C   UNL     1       7.796  -2.012  -0.412  1.00  0.00    -0.029 C 
ATOM     39  H   UNL     1       8.100  -2.901   0.143  1.00  0.00     0.031 H 
ATOM     40  H   UNL     1       8.029  -2.227  -1.456  1.00  0.00     0.031 H 
BRANCH  38  41
ATOM     41  C   UNL     1       8.601  -0.795   0.062  1.00  0.00    -0.061 C 
ATOM     42  H   UNL     1       9.671  -0.966  -0.059  1.00  0.00     0.023 H 
ATOM     43  H   UNL     1       8.418  -0.584   1.117  1.00  0.00     0.023 H 
ATOM     44  H   UNL     1       8.343   0.098  -0.508  1.00  0.00     0.023 H 
ENDBRANCH  38  41
ENDBRANCH  35  38
ENDBRANCH  26  29
ENDBRANCH   1  26
TORSDOF 8
