REMARK SMILES COc1ccc2c(c1)c(CC(=O)[O-])c(C)n2C(=O)c1ccc(Cl)cc1
REMARK SMILES IDX 16 1 6 2 14 3 7 4 5 5 9 6 8 7 4 8 3 9 17 13 18 14 19 15
REMARK SMILES IDX 23 16 22 17 21 18 24 19 20 20 25 22 15 26 10 30 11 33 12 34
REMARK SMILES IDX 13 35 2 36 1 37
REMARK H PARENT 5 10 8 11 4 12 21 21 24 23 20 24 25 25 15 27 15 28 15 29 10 31
REMARK H PARENT 10 32 1 38 1 39 1 40
REMARK Flexibility Score: inf
ROOT
ATOM      1  N   UNL     1      -1.820   0.961   0.474  1.00  0.00    -0.280 N 
ATOM      2  C   UNL     1      -1.977  -0.406   0.250  1.00  0.00     0.057 A 
ATOM      3  C   UNL     1      -0.449   1.220   0.597  1.00  0.00     0.027 A 
ATOM      4  C   UNL     1      -0.683  -0.984   0.147  1.00  0.00     0.008 A 
ATOM      5  C   UNL     1      -3.134  -1.189   0.100  1.00  0.00    -0.034 A 
ATOM      6  C   UNL     1       0.272   0.059   0.347  1.00  0.00    -0.013 A 
ATOM      7  C   UNL     1      -0.562  -2.360  -0.107  1.00  0.00    -0.010 A 
ATOM      8  C   UNL     1      -2.968  -2.550  -0.149  1.00  0.00    -0.018 A 
ATOM      9  C   UNL     1      -1.714  -3.145  -0.255  1.00  0.00     0.119 A 
ATOM     10  H   UNL     1      -4.127  -0.768   0.166  1.00  0.00     0.065 H 
ATOM     11  H   UNL     1       0.422  -2.795  -0.179  1.00  0.00     0.067 H 
ATOM     12  H   UNL     1      -3.849  -3.163  -0.267  1.00  0.00     0.066 H 
ENDROOT
BRANCH   1  13
ATOM     13  C   UNL     1      -2.872   1.925   0.643  1.00  0.00     0.262 C 
ATOM     14  O   UNL     1      -3.930   1.597   1.183  1.00  0.00    -0.268 OA
BRANCH  13  15
ATOM     15  C   UNL     1      -2.721   3.317   0.078  1.00  0.00     0.040 A 
ATOM     16  Cl  UNL     1      -2.354   7.483  -1.623  1.00  0.00    -0.084 Cl
ATOM     17  C   UNL     1      -2.500   5.889  -0.976  1.00  0.00     0.041 A 
ATOM     18  C   UNL     1      -3.134   5.696   0.249  1.00  0.00    -0.043 A 
ATOM     19  C   UNL     1      -1.986   4.806  -1.685  1.00  0.00    -0.043 A 
ATOM     20  C   UNL     1      -3.250   4.411   0.773  1.00  0.00    -0.048 A 
ATOM     21  H   UNL     1      -3.537   6.538   0.794  1.00  0.00     0.064 H 
ATOM     22  C   UNL     1      -2.101   3.521  -1.162  1.00  0.00    -0.048 A 
ATOM     23  H   UNL     1      -1.500   4.958  -2.638  1.00  0.00     0.064 H 
ATOM     24  H   UNL     1      -3.747   4.275   1.723  1.00  0.00     0.063 H 
ATOM     25  H   UNL     1      -1.704   2.689  -1.726  1.00  0.00     0.063 H 
ENDBRANCH  13  15
ENDBRANCH   1  13
BRANCH   3  26
ATOM     26  C   UNL     1       0.123   2.576   0.994  1.00  0.00    -0.023 C 
ATOM     27  H   UNL     1       0.260   3.235   0.137  1.00  0.00     0.030 H 
ATOM     28  H   UNL     1      -0.494   3.099   1.724  1.00  0.00     0.030 H 
ATOM     29  H   UNL     1       1.102   2.474   1.462  1.00  0.00     0.030 H 
ENDBRANCH   3  26
BRANCH   6  30
ATOM     30  C   UNL     1       1.790  -0.115   0.325  1.00  0.00     0.015 C 
ATOM     31  H   UNL     1       2.071  -0.658  -0.580  1.00  0.00     0.038 H 
ATOM     32  H   UNL     1       2.290   0.851   0.243  1.00  0.00     0.038 H 
BRANCH  30  33
ATOM     33  C   UNL     1       2.381  -0.837   1.561  1.00  0.00     0.046 C 
ATOM     34  O   UNL     1       1.737  -0.861   2.636  1.00  0.00    -0.550 OA
ATOM     35  O   UNL     1       3.512  -1.354   1.413  1.00  0.00    -0.550 OA
ENDBRANCH  30  33
ENDBRANCH   6  30
BRANCH   9  36
ATOM     36  O   UNL     1      -1.700  -4.504  -0.507  1.00  0.00    -0.497 OA
BRANCH  36  37
ATOM     37  C   UNL     1      -0.451  -5.176  -0.623  1.00  0.00     0.078 C 
ATOM     38  H   UNL     1      -0.628  -6.233  -0.824  1.00  0.00     0.067 H 
ATOM     39  H   UNL     1       0.128  -5.109   0.300  1.00  0.00     0.067 H 
ATOM     40  H   UNL     1       0.143  -4.779  -1.448  1.00  0.00     0.067 H 
ENDBRANCH  36  37
ENDBRANCH   9  36
TORSDOF 7
