REMARK SMILES Cc1oc(-c2ccccc2)nc1CCOc1cccc2c1ccn2CCC(=O)[O-]
REMARK SMILES IDX 15 1 16 2 24 3 20 4 23 5 21 6 19 7 22 8 18 10 17 13 25 16
REMARK SMILES IDX 26 19 27 22 28 23 29 24 14 25 13 28 12 31 11 32 2 33 4 34
REMARK SMILES IDX 3 35 1 36 5 40 6 41 10 42 7 43 9 45 8 47
REMARK H PARENT 23 9 19 11 22 12 18 14 17 15 25 17 25 18 26 20 26 21 14 26
REMARK H PARENT 14 27 13 29 13 30 1 37 1 38 1 39 6 44 10 46 7 48 9 49 8 50
REMARK Flexibility Score: inf
ROOT
ATOM      1  O   UNL     1       0.066   0.137   0.005  1.00  0.00    -0.492 OA
ENDROOT
BRANCH   1   2
ATOM      2  C   UNL     1      -0.454   1.414   0.055  1.00  0.00     0.128 A 
ATOM      3  N   UNL     1      -3.856   2.562   0.067  1.00  0.00    -0.347 N 
ATOM      4  C   UNL     1      -2.485   2.773   0.095  1.00  0.00     0.052 A 
ATOM      5  C   UNL     1      -4.100   1.209   0.028  1.00  0.00     0.005 A 
ATOM      6  C   UNL     1      -1.858   1.489   0.047  1.00  0.00     0.042 A 
ATOM      7  C   UNL     1      -1.739   3.959   0.158  1.00  0.00    -0.038 A 
ATOM      8  C   UNL     1      -2.910   0.516   0.002  1.00  0.00    -0.033 A 
ATOM      9  H   UNL     1      -5.118   0.847   0.018  1.00  0.00     0.082 H 
ATOM     10  C   UNL     1      -0.350   3.841   0.164  1.00  0.00    -0.056 A 
ATOM     11  H   UNL     1      -2.212   4.929   0.200  1.00  0.00     0.065 H 
ATOM     12  H   UNL     1      -2.813  -0.558  -0.037  1.00  0.00     0.065 H 
ATOM     13  C   UNL     1       0.284   2.604   0.113  1.00  0.00    -0.019 A 
ATOM     14  H   UNL     1       0.252   4.736   0.211  1.00  0.00     0.062 H 
ATOM     15  H   UNL     1       1.363   2.584   0.121  1.00  0.00     0.066 H 
BRANCH   3  16
ATOM     16  C   UNL     1      -4.886   3.594   0.133  1.00  0.00     0.028 C 
ATOM     17  H   UNL     1      -4.620   4.363  -0.595  1.00  0.00     0.050 H 
ATOM     18  H   UNL     1      -5.832   3.169  -0.209  1.00  0.00     0.050 H 
BRANCH  16  19
ATOM     19  C   UNL     1      -5.030   4.154   1.578  1.00  0.00     0.005 C 
ATOM     20  H   UNL     1      -5.870   3.657   2.064  1.00  0.00     0.035 H 
ATOM     21  H   UNL     1      -4.160   3.896   2.187  1.00  0.00     0.035 H 
BRANCH  19  22
ATOM     22  C   UNL     1      -5.302   5.673   1.633  1.00  0.00     0.043 C 
ATOM     23  O   UNL     1      -6.094   6.174   0.800  1.00  0.00    -0.550 OA
ATOM     24  O   UNL     1      -4.739   6.319   2.545  1.00  0.00    -0.550 OA
ENDBRANCH  19  22
ENDBRANCH  16  19
ENDBRANCH   3  16
ENDBRANCH   1   2
BRANCH   1  25
ATOM     25  C   UNL     1       1.480  -0.033   0.017  1.00  0.00     0.094 C 
ATOM     26  H   UNL     1       1.916   0.416   0.911  1.00  0.00     0.071 H 
ATOM     27  H   UNL     1       1.923   0.458  -0.852  1.00  0.00     0.071 H 
BRANCH  25  28
ATOM     28  C   UNL     1       1.798  -1.536  -0.027  1.00  0.00     0.028 C 
ATOM     29  H   UNL     1       2.878  -1.668  -0.089  1.00  0.00     0.037 H 
ATOM     30  H   UNL     1       1.412  -1.957  -0.956  1.00  0.00     0.037 H 
BRANCH  28  31
ATOM     31  C   UNL     1       1.262  -2.283   1.180  1.00  0.00     0.086 A 
ATOM     32  N   UNL     1       1.871  -2.206   2.352  1.00  0.00    -0.214 NA
ATOM     33  C   UNL     1       0.146  -3.103   1.287  1.00  0.00     0.125 A 
ATOM     34  C   UNL     1       1.161  -2.960   3.163  1.00  0.00     0.226 A 
ATOM     35  O   UNL     1       0.087  -3.538   2.567  1.00  0.00    -0.441 OA
BRANCH  33  36
ATOM     36  C   UNL     1      -0.940  -3.565   0.346  1.00  0.00    -0.004 C 
ATOM     37  H   UNL     1      -0.820  -3.139  -0.650  1.00  0.00     0.031 H 
ATOM     38  H   UNL     1      -1.927  -3.272   0.702  1.00  0.00     0.031 H 
ATOM     39  H   UNL     1      -0.941  -4.649   0.237  1.00  0.00     0.031 H 
ENDBRANCH  33  36
BRANCH  34  40
ATOM     40  C   UNL     1       1.415  -3.235   4.611  1.00  0.00     0.037 A 
ATOM     41  C   UNL     1       2.537  -2.689   5.246  1.00  0.00    -0.050 A 
ATOM     42  C   UNL     1       0.535  -4.043   5.342  1.00  0.00    -0.050 A 
ATOM     43  C   UNL     1       2.777  -2.947   6.593  1.00  0.00    -0.061 A 
ATOM     44  H   UNL     1       3.229  -2.064   4.699  1.00  0.00     0.063 H 
ATOM     45  C   UNL     1       0.775  -4.300   6.690  1.00  0.00    -0.061 A 
ATOM     46  H   UNL     1      -0.337  -4.474   4.874  1.00  0.00     0.063 H 
ATOM     47  C   UNL     1       1.895  -3.752   7.309  1.00  0.00    -0.062 A 
ATOM     48  H   UNL     1       3.644  -2.526   7.080  1.00  0.00     0.062 H 
ATOM     49  H   UNL     1       0.095  -4.923   7.252  1.00  0.00     0.062 H 
ATOM     50  H   UNL     1       2.081  -3.953   8.354  1.00  0.00     0.062 H 
ENDBRANCH  34  40
ENDBRANCH  28  31
ENDBRANCH  25  28
ENDBRANCH   1  25
TORSDOF 9
