REMARK SMILES CCO[C@H](Cc1ccc(OCCc2ccc(OS(C)(=O)=O)cc2)cc1)C(=O)[O-]
REMARK SMILES IDX 10 1 11 2 12 5 13 8 16 9 15 10 22 11 14 12 23 14 17 18 18 19
REMARK SMILES IDX 20 20 21 21 19 22 9 26 8 27 24 28 7 29 25 31 6 33 5 36 4 39
REMARK SMILES IDX 3 41 2 42 1 45 26 49 27 50 28 51
REMARK H PARENT 11 3 11 4 12 6 12 7 15 13 22 15 14 16 23 17 19 23 19 24 19 25
REMARK H PARENT 8 30 24 32 7 34 25 35 5 37 5 38 4 40 2 43 2 44 1 46 1 47 1 48
REMARK Flexibility Score: inf
ROOT
ATOM      1  O   UNL     1      -0.126   0.116   0.021  1.00  0.00    -0.493 OA
ENDROOT
BRANCH   1   2
ATOM      2  C   UNL     1      -0.813   1.364  -0.048  1.00  0.00     0.092 C 
ATOM      3  H   UNL     1      -0.565   1.974   0.823  1.00  0.00     0.071 H 
ATOM      4  H   UNL     1      -0.513   1.923  -0.937  1.00  0.00     0.071 H 
BRANCH   2   5
ATOM      5  C   UNL     1      -2.329   1.117  -0.079  1.00  0.00     0.007 C 
ATOM      6  H   UNL     1      -2.646   0.637   0.849  1.00  0.00     0.035 H 
ATOM      7  H   UNL     1      -2.860   2.070  -0.105  1.00  0.00     0.035 H 
BRANCH   5   8
ATOM      8  C   UNL     1      -2.773   0.270  -1.265  1.00  0.00    -0.044 A 
ATOM      9  C   UNL     1      -3.556  -1.283  -3.440  1.00  0.00     0.142 A 
ATOM     10  C   UNL     1      -3.376   0.092  -3.596  1.00  0.00    -0.018 A 
ATOM     11  C   UNL     1      -3.363  -1.880  -2.194  1.00  0.00    -0.018 A 
ATOM     12  C   UNL     1      -2.981   0.868  -2.510  1.00  0.00    -0.055 A 
ATOM     13  H   UNL     1      -3.538   0.555  -4.559  1.00  0.00     0.066 H 
ATOM     14  C   UNL     1      -2.967  -1.105  -1.107  1.00  0.00    -0.055 A 
ATOM     15  H   UNL     1      -3.515  -2.942  -2.071  1.00  0.00     0.066 H 
ATOM     16  H   UNL     1      -2.834   1.931  -2.638  1.00  0.00     0.063 H 
ATOM     17  H   UNL     1      -2.809  -1.574  -0.147  1.00  0.00     0.063 H 
BRANCH   9  18
ATOM     18  O   UNL     1      -3.956  -2.052  -4.502  1.00  0.00    -0.383 OA
BRANCH  18  19
ATOM     19  S   UNL     1      -2.822  -2.499  -5.650  1.00  0.00     0.306 S 
ATOM     20  O   UNL     1      -3.493  -3.366  -6.625  1.00  0.00    -0.187 OA
ATOM     21  O   UNL     1      -2.094  -1.304  -6.090  1.00  0.00    -0.187 OA
BRANCH  19  22
ATOM     22  C   UNL     1      -1.688  -3.560  -4.573  1.00  0.00     0.075 C 
ATOM     23  H   UNL     1      -1.208  -2.930  -3.825  1.00  0.00     0.043 H 
ATOM     24  H   UNL     1      -2.282  -4.334  -4.088  1.00  0.00     0.043 H 
ATOM     25  H   UNL     1      -0.931  -4.017  -5.209  1.00  0.00     0.043 H 
ENDBRANCH  19  22
ENDBRANCH  18  19
ENDBRANCH   9  18
ENDBRANCH   5   8
ENDBRANCH   2   5
ENDBRANCH   1   2
BRANCH   1  26
ATOM     26  C   UNL     1       1.255   0.099  -0.000  1.00  0.00     0.119 A 
ATOM     27  C   UNL     1       2.061   1.249  -0.016  1.00  0.00    -0.020 A 
ATOM     28  C   UNL     1       1.860  -1.158  -0.004  1.00  0.00    -0.020 A 
ATOM     29  C   UNL     1       3.448   1.132  -0.038  1.00  0.00    -0.055 A 
ATOM     30  H   UNL     1       1.631   2.239  -0.012  1.00  0.00     0.066 H 
ATOM     31  C   UNL     1       3.247  -1.277  -0.031  1.00  0.00    -0.055 A 
ATOM     32  H   UNL     1       1.251  -2.050   0.008  1.00  0.00     0.066 H 
ATOM     33  C   UNL     1       4.043  -0.130  -0.048  1.00  0.00    -0.045 A 
ATOM     34  H   UNL     1       4.059   2.023  -0.055  1.00  0.00     0.063 H 
ATOM     35  H   UNL     1       3.700  -2.257  -0.040  1.00  0.00     0.063 H 
BRANCH  33  36
ATOM     36  C   UNL     1       5.561  -0.257  -0.085  1.00  0.00     0.004 C 
ATOM     37  H   UNL     1       6.000   0.553   0.501  1.00  0.00     0.035 H 
ATOM     38  H   UNL     1       5.841  -1.172   0.441  1.00  0.00     0.035 H 
BRANCH  36  39
ATOM     39  C   UNL     1       6.130  -0.259  -1.525  1.00  0.00     0.101 C 
ATOM     40  H   UNL     1       5.621  -1.042  -2.094  1.00  0.00     0.067 H 
BRANCH  39  41
ATOM     41  O   UNL     1       5.845   1.016  -2.119  1.00  0.00    -0.372 OA
BRANCH  41  42
ATOM     42  C   UNL     1       5.965   1.091  -3.537  1.00  0.00     0.045 C 
ATOM     43  H   UNL     1       6.981   0.862  -3.860  1.00  0.00     0.056 H 
ATOM     44  H   UNL     1       5.298   0.367  -4.008  1.00  0.00     0.056 H 
BRANCH  42  45
ATOM     45  C   UNL     1       5.590   2.506  -3.984  1.00  0.00    -0.042 C 
ATOM     46  H   UNL     1       5.661   2.605  -5.068  1.00  0.00     0.025 H 
ATOM     47  H   UNL     1       6.253   3.248  -3.537  1.00  0.00     0.025 H 
ATOM     48  H   UNL     1       4.568   2.752  -3.693  1.00  0.00     0.025 H 
ENDBRANCH  42  45
ENDBRANCH  41  42
ENDBRANCH  39  41
BRANCH  39  49
ATOM     49  C   UNL     1       7.661  -0.534  -1.493  1.00  0.00     0.071 C 
ATOM     50  O   UNL     1       8.021  -1.733  -1.528  1.00  0.00    -0.547 OA
ATOM     51  O   UNL     1       8.454   0.434  -1.416  1.00  0.00    -0.547 OA
ENDBRANCH  39  49
ENDBRANCH  36  39
ENDBRANCH  33  36
ENDBRANCH   1  26
TORSDOF 13
