REMARK SMILES CCCc1c(OCCCOc2ccc(OCC(=O)[O-])cc2)ccc(C(C)=O)c1O
REMARK SMILES IDX 8 1 9 4 10 7 11 8 14 9 13 10 20 11 12 12 21 14 15 18 16 19
REMARK SMILES IDX 17 22 18 23 19 24 7 25 6 28 5 29 4 30 22 31 28 32 23 33
REMARK SMILES IDX 24 35 3 37 2 40 1 43 29 47 25 49 27 50 26 51
REMARK H PARENT 8 2 8 3 9 5 9 6 13 13 20 15 12 16 21 17 16 20 16 21 7 26 7 27
REMARK H PARENT 22 34 23 36 3 38 3 39 2 41 2 42 1 44 1 45 1 46 29 48 26 52
REMARK H PARENT 26 53 26 54
REMARK Flexibility Score: inf
ROOT
ATOM      1  C   UNL     1      -0.428   1.482  -0.045  1.00  0.00     0.016 C 
ATOM      2  H   UNL     1      -0.034   1.887   0.888  1.00  0.00     0.034 H 
ATOM      3  H   UNL     1       0.052   2.043  -0.848  1.00  0.00     0.034 H 
ENDROOT
BRANCH   1   4
ATOM      4  C   UNL     1      -1.945   1.722  -0.105  1.00  0.00     0.091 C 
ATOM      5  H   UNL     1      -2.154   2.792  -0.059  1.00  0.00     0.071 H 
ATOM      6  H   UNL     1      -2.330   1.347  -1.055  1.00  0.00     0.071 H 
BRANCH   4   7
ATOM      7  O   UNL     1      -2.567   1.063   0.996  1.00  0.00    -0.493 OA
BRANCH   7   8
ATOM      8  C   UNL     1      -3.945   0.994   1.056  1.00  0.00     0.119 A 
ATOM      9  C   UNL     1      -6.728   0.720   1.328  1.00  0.00     0.120 A 
ATOM     10  C   UNL     1      -5.863   0.128   2.248  1.00  0.00    -0.016 A 
ATOM     11  C   UNL     1      -6.189   1.465   0.268  1.00  0.00    -0.016 A 
ATOM     12  C   UNL     1      -4.485   0.264   2.114  1.00  0.00    -0.016 A 
ATOM     13  H   UNL     1      -6.264  -0.446   3.071  1.00  0.00     0.066 H 
ATOM     14  C   UNL     1      -4.810   1.601   0.133  1.00  0.00    -0.016 A 
ATOM     15  H   UNL     1      -6.822   1.938  -0.466  1.00  0.00     0.066 H 
ATOM     16  H   UNL     1      -3.832  -0.206   2.834  1.00  0.00     0.066 H 
ATOM     17  H   UNL     1      -4.433   2.179  -0.697  1.00  0.00     0.066 H 
BRANCH   9  18
ATOM     18  O   UNL     1      -8.082   0.523   1.542  1.00  0.00    -0.488 OA
BRANCH  18  19
ATOM     19  C   UNL     1      -9.063   1.054   0.635  1.00  0.00     0.128 C 
ATOM     20  H   UNL     1     -10.019   1.056   1.160  1.00  0.00     0.077 H 
ATOM     21  H   UNL     1      -8.841   2.098   0.402  1.00  0.00     0.077 H 
BRANCH  19  22
ATOM     22  C   UNL     1      -9.185   0.208  -0.658  1.00  0.00     0.079 C 
ATOM     23  O   UNL     1      -9.857   0.713  -1.585  1.00  0.00    -0.546 OA
ATOM     24  O   UNL     1      -8.644  -0.920  -0.717  1.00  0.00    -0.546 OA
ENDBRANCH  19  22
ENDBRANCH  18  19
ENDBRANCH   9  18
ENDBRANCH   7   8
ENDBRANCH   4   7
ENDBRANCH   1   4
BRANCH   1  25
ATOM     25  C   UNL     1      -0.048  -0.002  -0.166  1.00  0.00     0.091 C 
ATOM     26  H   UNL     1      -0.428  -0.408  -1.105  1.00  0.00     0.071 H 
ATOM     27  H   UNL     1      -0.493  -0.565   0.656  1.00  0.00     0.071 H 
BRANCH  25  28
ATOM     28  O   UNL     1       1.371  -0.117  -0.123  1.00  0.00    -0.493 OA
BRANCH  28  29
ATOM     29  C   UNL     1       1.963  -1.368  -0.161  1.00  0.00     0.126 A 
ATOM     30  C   UNL     1       3.364  -1.436  -0.065  1.00  0.00     0.037 A 
ATOM     31  C   UNL     1       1.234  -2.558  -0.284  1.00  0.00    -0.019 A 
ATOM     32  C   UNL     1       4.014  -2.686  -0.082  1.00  0.00     0.133 A 
ATOM     33  C   UNL     1       1.876  -3.789  -0.306  1.00  0.00    -0.044 A 
ATOM     34  H   UNL     1       0.158  -2.551  -0.368  1.00  0.00     0.066 H 
ATOM     35  C   UNL     1       3.269  -3.881  -0.196  1.00  0.00     0.060 A 
ATOM     36  H   UNL     1       1.263  -4.672  -0.416  1.00  0.00     0.063 H 
BRANCH  30  37
ATOM     37  C   UNL     1       4.179  -0.141   0.066  1.00  0.00    -0.021 C 
ATOM     38  H   UNL     1       5.094  -0.235  -0.519  1.00  0.00     0.032 H 
ATOM     39  H   UNL     1       3.654   0.694  -0.398  1.00  0.00     0.032 H 
BRANCH  37  40
ATOM     40  C   UNL     1       4.542   0.219   1.522  1.00  0.00    -0.052 C 
ATOM     41  H   UNL     1       5.105  -0.597   1.976  1.00  0.00     0.027 H 
ATOM     42  H   UNL     1       5.217   1.075   1.512  1.00  0.00     0.027 H 
BRANCH  40  43
ATOM     43  C   UNL     1       3.333   0.560   2.407  1.00  0.00    -0.065 C 
ATOM     44  H   UNL     1       3.654   0.854   3.406  1.00  0.00     0.023 H 
ATOM     45  H   UNL     1       2.663  -0.293   2.517  1.00  0.00     0.023 H 
ATOM     46  H   UNL     1       2.757   1.387   1.988  1.00  0.00     0.023 H 
ENDBRANCH  40  43
ENDBRANCH  37  40
ENDBRANCH  30  37
BRANCH  32  47
ATOM     47  O   UNL     1       5.384  -2.717   0.038  1.00  0.00    -0.507 OA
ATOM     48  H   UNL     1       5.768  -1.842   0.126  1.00  0.00     0.293 HD
ENDBRANCH  32  47
BRANCH  35  49
ATOM     49  C   UNL     1       3.913  -5.239  -0.259  1.00  0.00     0.163 C 
ATOM     50  O   UNL     1       5.083  -5.439  -0.586  1.00  0.00    -0.294 OA
BRANCH  49  51
ATOM     51  C   UNL     1       3.103  -6.428   0.262  1.00  0.00    -0.001 C 
ATOM     52  H   UNL     1       2.603  -6.163   1.194  1.00  0.00     0.031 H 
ATOM     53  H   UNL     1       3.749  -7.283   0.465  1.00  0.00     0.031 H 
ATOM     54  H   UNL     1       2.341  -6.720  -0.460  1.00  0.00     0.031 H 
ENDBRANCH  49  51
ENDBRANCH  35  49
ENDBRANCH  28  29
ENDBRANCH  25  28
ENDBRANCH   1  25
TORSDOF 15
