REMARK SMILES O=C([O-])CCc1nc(-c2ccccc2)c(-c2ccccc2)o1
REMARK SMILES IDX 5 1 4 4 2 7 1 8 3 9 6 10 22 11 7 12 15 13 8 14 16 15 17 16
REMARK SMILES IDX 21 17 18 18 20 20 19 22 9 26 10 27 14 28 11 29 13 31 12 33
REMARK H PARENT 5 2 5 3 4 5 4 6 17 19 21 21 18 23 20 24 19 25 10 30 14 32
REMARK H PARENT 11 34 13 35 12 36
REMARK Flexibility Score: inf
ROOT
ATOM      1  C   UNL     1       0.091   0.079   0.242  1.00  0.00     0.029 C 
ATOM      2  H   UNL     1      -0.317  -0.810  -0.241  1.00  0.00     0.037 H 
ATOM      3  H   UNL     1      -0.207   0.015   1.291  1.00  0.00     0.037 H 
ENDROOT
BRANCH   1   4
ATOM      4  C   UNL     1      -0.520   1.355  -0.397  1.00  0.00    -0.004 C 
ATOM      5  H   UNL     1      -0.126   2.236   0.114  1.00  0.00     0.033 H 
ATOM      6  H   UNL     1      -0.189   1.428  -1.435  1.00  0.00     0.033 H 
BRANCH   4   7
ATOM      7  C   UNL     1      -2.066   1.431  -0.372  1.00  0.00     0.042 C 
ATOM      8  O   UNL     1      -2.729   0.561   0.241  1.00  0.00    -0.550 OA
ATOM      9  O   UNL     1      -2.578   2.398  -0.980  1.00  0.00    -0.550 OA
ENDBRANCH   4   7
ENDBRANCH   1   4
BRANCH   1  10
ATOM     10  C   UNL     1       1.601   0.054   0.134  1.00  0.00     0.195 A 
ATOM     11  O   UNL     1       2.155   0.078  -1.101  1.00  0.00    -0.440 OA
ATOM     12  N   UNL     1       2.471   0.018   1.114  1.00  0.00    -0.213 NA
ATOM     13  C   UNL     1       3.490   0.053  -0.866  1.00  0.00     0.162 A 
ATOM     14  C   UNL     1       3.657   0.029   0.523  1.00  0.00     0.117 A 
BRANCH  13  15
ATOM     15  C   UNL     1       4.387   0.029  -2.055  1.00  0.00     0.020 A 
ATOM     16  C   UNL     1       4.036   0.737  -3.209  1.00  0.00    -0.051 A 
ATOM     17  C   UNL     1       5.573  -0.711  -2.027  1.00  0.00    -0.051 A 
ATOM     18  C   UNL     1       4.871   0.715  -4.323  1.00  0.00    -0.062 A 
ATOM     19  H   UNL     1       3.119   1.309  -3.244  1.00  0.00     0.063 H 
ATOM     20  C   UNL     1       6.409  -0.733  -3.140  1.00  0.00    -0.062 A 
ATOM     21  H   UNL     1       5.849  -1.272  -1.145  1.00  0.00     0.063 H 
ATOM     22  C   UNL     1       6.054  -0.019  -4.283  1.00  0.00    -0.062 A 
ATOM     23  H   UNL     1       4.602   1.264  -5.213  1.00  0.00     0.062 H 
ATOM     24  H   UNL     1       7.326  -1.303  -3.118  1.00  0.00     0.062 H 
ATOM     25  H   UNL     1       6.702  -0.037  -5.147  1.00  0.00     0.062 H 
ENDBRANCH  13  15
BRANCH  14  26
ATOM     26  C   UNL     1       4.919   0.029   1.325  1.00  0.00     0.004 A 
ATOM     27  C   UNL     1       5.010  -0.715   2.507  1.00  0.00    -0.053 A 
ATOM     28  C   UNL     1       6.016   0.789   0.902  1.00  0.00    -0.053 A 
ATOM     29  C   UNL     1       6.188  -0.710   3.251  1.00  0.00    -0.062 A 
ATOM     30  H   UNL     1       4.171  -1.303   2.851  1.00  0.00     0.063 H 
ATOM     31  C   UNL     1       7.194   0.795   1.644  1.00  0.00    -0.062 A 
ATOM     32  H   UNL     1       5.958   1.380  -0.001  1.00  0.00     0.063 H 
ATOM     33  C   UNL     1       7.275   0.044   2.815  1.00  0.00    -0.062 A 
ATOM     34  H   UNL     1       6.258  -1.287   4.160  1.00  0.00     0.062 H 
ATOM     35  H   UNL     1       8.039   1.381   1.315  1.00  0.00     0.062 H 
ATOM     36  H   UNL     1       8.188   0.049   3.391  1.00  0.00     0.062 H 
ENDBRANCH  14  26
ENDBRANCH   1  10
TORSDOF 5
