REMARK SMILES COc1ccc(C(=O)/C(Br)=C\C(=O)[O-])cc1
REMARK SMILES IDX 6 1 5 2 15 3 4 4 16 5 3 6 7 11 8 12 9 13 10 14 11 15 12 17
REMARK SMILES IDX 13 18 14 19 2 20 1 21
REMARK H PARENT 5 7 15 8 4 9 16 10 11 16 1 22 1 23 1 24
REMARK Flexibility Score: inf
ROOT
ATOM      1  C   UNL     1       1.571  -0.157   0.000  1.00  0.00     0.023 A 
ATOM      2  C   UNL     1       2.412  -1.284   0.001  1.00  0.00    -0.047 A 
ATOM      3  C   UNL     1       2.216   1.099   0.001  1.00  0.00    -0.047 A 
ATOM      4  C   UNL     1       3.799  -1.165   0.001  1.00  0.00    -0.019 A 
ATOM      5  C   UNL     1       3.602   1.224   0.001  1.00  0.00    -0.019 A 
ATOM      6  C   UNL     1       4.410   0.084   0.001  1.00  0.00     0.118 A 
ATOM      7  H   UNL     1       2.075  -2.295   0.001  1.00  0.00     0.063 H 
ATOM      8  H   UNL     1       1.654   2.022   0.001  1.00  0.00     0.063 H 
ATOM      9  H   UNL     1       4.407  -2.058   0.001  1.00  0.00     0.066 H 
ATOM     10  H   UNL     1       4.028   2.216   0.001  1.00  0.00     0.066 H 
ENDROOT
BRANCH   1  11
ATOM     11  C   UNL     1       0.036  -0.157   0.000  1.00  0.00     0.200 C 
ATOM     12  O   UNL     1      -0.487   0.955   0.000  1.00  0.00    -0.288 OA
BRANCH  11  13
ATOM     13  C   UNL     1      -0.884  -1.354   0.000  1.00  0.00     0.067 C 
ATOM     14  Br  UNL     1      -0.164  -3.209  -0.000  1.00  0.00    -0.046 Br
ATOM     15  C   UNL     1      -2.252  -1.387   0.000  1.00  0.00    -0.021 C 
ATOM     16  H   UNL     1      -2.619  -2.405   0.000  1.00  0.00     0.066 H 
BRANCH  15  17
ATOM     17  C   UNL     1      -3.436  -0.355   0.000  1.00  0.00     0.065 C 
ATOM     18  O   UNL     1      -4.561  -0.904   0.001  1.00  0.00    -0.545 OA
ATOM     19  O   UNL     1      -3.186   0.868   0.001  1.00  0.00    -0.545 OA
ENDBRANCH  15  17
ENDBRANCH  11  13
ENDBRANCH   1  11
BRANCH   6  20
ATOM     20  O   UNL     1       5.792   0.102   0.001  1.00  0.00    -0.497 OA
BRANCH  20  21
ATOM     21  C   UNL     1       6.468   1.355   0.001  1.00  0.00     0.078 C 
ATOM     22  H   UNL     1       7.544   1.182   0.001  1.00  0.00     0.067 H 
ATOM     23  H   UNL     1       6.227   1.939   0.890  1.00  0.00     0.067 H 
ATOM     24  H   UNL     1       6.227   1.939  -0.888  1.00  0.00     0.067 H 
ENDBRANCH  20  21
ENDBRANCH   6  20
TORSDOF 5
