REMARK SMILES CC(C)(Oc1ccc([C@@H]2CCCc3ccccc32)cc1)C(=O)[O-]
REMARK SMILES IDX 4 1 2 2 21 3 22 4 23 5 1 6 3 10 5 14 6 15 20 16 7 17 19 19
REMARK SMILES IDX 8 21 9 24 18 25 10 26 13 28 17 29 11 30 14 33 12 34 16 35
REMARK SMILES IDX 15 39
REMARK H PARENT 1 7 1 8 1 9 3 11 3 12 3 13 6 18 20 20 7 22 19 23 9 27 10 31
REMARK H PARENT 10 32 17 36 11 37 11 38 14 40 12 41 12 42 16 43 15 44
REMARK Flexibility Score: inf
ROOT
ATOM      1  O   UNL     1       1.134  -0.291   0.273  1.00  0.00    -0.482 OA
ENDROOT
BRANCH   1   2
ATOM      2  C   UNL     1      -0.238  -0.121  -0.154  1.00  0.00     0.143 C 
BRANCH   2   3
ATOM      3  C   UNL     1      -1.214  -0.947   0.759  1.00  0.00     0.084 C 
ATOM      4  O   UNL     1      -2.400  -0.560   0.879  1.00  0.00    -0.546 OA
ATOM      5  O   UNL     1      -0.776  -1.984   1.312  1.00  0.00    -0.546 OA
ENDBRANCH   2   3
BRANCH   2   6
ATOM      6  C   UNL     1      -0.262  -0.745  -1.571  1.00  0.00    -0.020 C 
ATOM      7  H   UNL     1       0.419  -0.222  -2.243  1.00  0.00     0.028 H 
ATOM      8  H   UNL     1       0.043  -1.793  -1.560  1.00  0.00     0.028 H 
ATOM      9  H   UNL     1      -1.256  -0.698  -2.019  1.00  0.00     0.028 H 
ENDBRANCH   2   6
BRANCH   2  10
ATOM     10  C   UNL     1      -0.616   1.389  -0.271  1.00  0.00    -0.020 C 
ATOM     11  H   UNL     1      -0.716   1.891   0.690  1.00  0.00     0.028 H 
ATOM     12  H   UNL     1       0.139   1.933  -0.839  1.00  0.00     0.028 H 
ATOM     13  H   UNL     1      -1.564   1.524  -0.793  1.00  0.00     0.028 H 
ENDBRANCH   2  10
ENDBRANCH   1   2
BRANCH   1  14
ATOM     14  C   UNL     1       1.677   0.271   1.419  1.00  0.00     0.120 A 
ATOM     15  C   UNL     1       3.070   0.259   1.496  1.00  0.00    -0.020 A 
ATOM     16  C   UNL     1       0.943   0.807   2.488  1.00  0.00    -0.020 A 
ATOM     17  C   UNL     1       3.727   0.784   2.605  1.00  0.00    -0.055 A 
ATOM     18  H   UNL     1       3.649  -0.162   0.688  1.00  0.00     0.066 H 
ATOM     19  C   UNL     1       1.597   1.336   3.597  1.00  0.00    -0.055 A 
ATOM     20  H   UNL     1      -0.135   0.811   2.491  1.00  0.00     0.066 H 
ATOM     21  C   UNL     1       2.993   1.332   3.659  1.00  0.00    -0.040 A 
ATOM     22  H   UNL     1       4.807   0.763   2.639  1.00  0.00     0.063 H 
ATOM     23  H   UNL     1       1.016   1.745   4.411  1.00  0.00     0.063 H 
BRANCH  21  24
ATOM     24  C   UNL     1       3.715   1.903   4.886  1.00  0.00     0.009 C 
ATOM     25  C   UNL     1       3.377   3.381   5.180  1.00  0.00    -0.037 A 
ATOM     26  C   UNL     1       3.551   0.980   6.115  1.00  0.00    -0.042 C 
ATOM     27  H   UNL     1       4.778   1.915   4.639  1.00  0.00     0.040 H 
ATOM     28  C   UNL     1       3.272   3.860   6.510  1.00  0.00    -0.044 A 
ATOM     29  C   UNL     1       3.269   4.307   4.130  1.00  0.00    -0.058 A 
ATOM     30  C   UNL     1       4.117   1.625   7.385  1.00  0.00    -0.048 C 
ATOM     31  H   UNL     1       2.497   0.744   6.276  1.00  0.00     0.028 H 
ATOM     32  H   UNL     1       4.048   0.027   5.931  1.00  0.00     0.028 H 
ATOM     33  C   UNL     1       3.071   5.228   6.731  1.00  0.00    -0.059 A 
ATOM     34  C   UNL     1       3.339   2.909   7.704  1.00  0.00    -0.028 C 
ATOM     35  C   UNL     1       3.057   5.661   4.367  1.00  0.00    -0.062 A 
ATOM     36  H   UNL     1       3.367   3.974   3.107  1.00  0.00     0.063 H 
ATOM     37  H   UNL     1       4.046   0.931   8.223  1.00  0.00     0.027 H 
ATOM     38  H   UNL     1       5.177   1.846   7.254  1.00  0.00     0.027 H 
ATOM     39  C   UNL     1       2.962   6.125   5.673  1.00  0.00    -0.062 A 
ATOM     40  H   UNL     1       2.987   5.602   7.741  1.00  0.00     0.063 H 
ATOM     41  H   UNL     1       3.783   3.406   8.569  1.00  0.00     0.032 H 
ATOM     42  H   UNL     1       2.320   2.647   7.991  1.00  0.00     0.032 H 
ATOM     43  H   UNL     1       2.980   6.351   3.540  1.00  0.00     0.062 H 
ATOM     44  H   UNL     1       2.803   7.176   5.866  1.00  0.00     0.062 H 
ENDBRANCH  21  24
ENDBRANCH   1  14
TORSDOF 6
