REMARK SMILES CN(CCOc1ccc(C[C@@H]2SC([O-])=NC2=O)cc1)c1ccccn1
REMARK SMILES IDX 4 1 5 4 6 5 9 6 8 7 18 8 7 9 19 11 10 15 11 18 12 19 13 20
REMARK SMILES IDX 14 21 15 22 16 23 17 25 3 26 2 29 20 30 25 31 21 32 24 33
REMARK SMILES IDX 22 34 23 36 1 40
REMARK H PARENT 4 2 4 3 8 10 18 12 7 13 19 14 10 16 10 17 11 24 3 27 3 28
REMARK H PARENT 21 35 24 37 22 38 23 39 1 41 1 42 1 43
REMARK Flexibility Score: inf
ROOT
ATOM      1  C   UNL     1       1.614  -0.238   0.207  1.00  0.00     0.106 C 
ATOM      2  H   UNL     1       1.358  -0.246   1.269  1.00  0.00     0.072 H 
ATOM      3  H   UNL     1       2.456   0.447   0.089  1.00  0.00     0.072 H 
ENDROOT
BRANCH   1   4
ATOM      4  O   UNL     1       0.524   0.212  -0.593  1.00  0.00    -0.492 OA
BRANCH   4   5
ATOM      5  C   UNL     1      -0.031   1.454  -0.354  1.00  0.00     0.119 A 
ATOM      6  C   UNL     1      -1.275   3.938  -0.024  1.00  0.00    -0.046 A 
ATOM      7  C   UNL     1      -1.725   3.055  -1.007  1.00  0.00    -0.055 A 
ATOM      8  C   UNL     1      -0.204   3.580   0.797  1.00  0.00    -0.055 A 
ATOM      9  C   UNL     1      -1.104   1.820  -1.168  1.00  0.00    -0.020 A 
ATOM     10  H   UNL     1      -2.556   3.322  -1.643  1.00  0.00     0.063 H 
ATOM     11  C   UNL     1       0.417   2.345   0.634  1.00  0.00    -0.020 A 
ATOM     12  H   UNL     1       0.148   4.259   1.560  1.00  0.00     0.063 H 
ATOM     13  H   UNL     1      -1.458   1.141  -1.930  1.00  0.00     0.066 H 
ATOM     14  H   UNL     1       1.243   2.097   1.283  1.00  0.00     0.066 H 
BRANCH   6  15
ATOM     15  C   UNL     1      -1.947   5.294   0.155  1.00  0.00    -0.006 C 
ATOM     16  H   UNL     1      -1.156   6.037   0.274  1.00  0.00     0.033 H 
ATOM     17  H   UNL     1      -2.459   5.573  -0.769  1.00  0.00     0.033 H 
BRANCH  15  18
ATOM     18  C   UNL     1      -2.925   5.349   1.355  1.00  0.00     0.095 C 
ATOM     19  S   UNL     1      -4.375   4.294   1.133  1.00  0.00    -0.108 SA
ATOM     20  C   UNL     1      -5.396   5.738   1.315  1.00  0.00     0.027 C 
ATOM     21  O   UNL     1      -6.626   5.615   1.230  1.00  0.00    -0.854 OA
ATOM     22  N   UNL     1      -4.831   6.848   1.525  1.00  0.00    -0.222 NA
ATOM     23  C   UNL     1      -3.459   6.772   1.576  1.00  0.00     0.259 C 
ATOM     24  H   UNL     1      -2.421   5.037   2.270  1.00  0.00     0.053 H 
ATOM     25  O   UNL     1      -2.717   7.730   1.788  1.00  0.00    -0.271 OA
ENDBRANCH  15  18
ENDBRANCH   6  15
ENDBRANCH   4   5
ENDBRANCH   1   4
BRANCH   1  26
ATOM     26  C   UNL     1       2.058  -1.642  -0.244  1.00  0.00     0.053 C 
ATOM     27  H   UNL     1       2.423  -1.618  -1.270  1.00  0.00     0.053 H 
ATOM     28  H   UNL     1       2.948  -1.914   0.327  1.00  0.00     0.053 H 
BRANCH  26  29
ATOM     29  N   UNL     1       1.064  -2.696  -0.011  1.00  0.00    -0.356 N 
BRANCH  29  30
ATOM     30  C   UNL     1       0.016  -2.939  -0.945  1.00  0.00     0.128 A 
ATOM     31  N   UNL     1      -0.995  -3.781  -0.572  1.00  0.00    -0.239 NA
ATOM     32  C   UNL     1       0.008  -2.351  -2.224  1.00  0.00    -0.019 A 
ATOM     33  C   UNL     1      -2.007  -4.036  -1.437  1.00  0.00     0.029 A 
ATOM     34  C   UNL     1      -1.041  -2.621  -3.105  1.00  0.00    -0.057 A 
ATOM     35  H   UNL     1       0.786  -1.682  -2.556  1.00  0.00     0.066 H 
ATOM     36  C   UNL     1      -2.068  -3.477  -2.711  1.00  0.00    -0.044 A 
ATOM     37  H   UNL     1      -2.781  -4.706  -1.091  1.00  0.00     0.084 H 
ATOM     38  H   UNL     1      -1.057  -2.169  -4.086  1.00  0.00     0.062 H 
ATOM     39  H   UNL     1      -2.889  -3.700  -3.376  1.00  0.00     0.064 H 
ENDBRANCH  29  30
BRANCH  29  40
ATOM     40  C   UNL     1       0.927  -3.175   1.368  1.00  0.00     0.008 C 
ATOM     41  H   UNL     1       0.610  -4.218   1.399  1.00  0.00     0.046 H 
ATOM     42  H   UNL     1       0.173  -2.588   1.892  1.00  0.00     0.046 H 
ATOM     43  H   UNL     1       1.865  -3.094   1.919  1.00  0.00     0.046 H 
ENDBRANCH  29  40
ENDBRANCH  26  29
ENDBRANCH   1  26
TORSDOF 8
