REMARK SMILES CCc1ccc(CCOc2ccc(C[C@@H]3SC([O-])=NC3=O)cc2)[nH+]c1
REMARK SMILES IDX 8 1 9 4 10 5 13 6 12 7 22 8 11 9 23 11 14 15 15 18 16 19
REMARK SMILES IDX 17 20 18 21 19 22 20 23 21 25 7 26 6 29 24 30 5 31 25 32
REMARK SMILES IDX 4 34 3 36 2 39 1 42
REMARK H PARENT 8 2 8 3 12 10 22 12 11 13 23 14 14 16 14 17 15 24 7 27 7 28
REMARK H PARENT 24 33 5 35 25 37 4 38 2 40 2 41 1 43 1 44 1 45
REMARK Flexibility Score: inf
ROOT
ATOM      1  C   UNL     1       1.613   0.108  -0.142  1.00  0.00     0.098 C 
ATOM      2  H   UNL     1       2.020   0.612   0.737  1.00  0.00     0.071 H 
ATOM      3  H   UNL     1       1.978   0.620  -1.035  1.00  0.00     0.071 H 
ENDROOT
BRANCH   1   4
ATOM      4  O   UNL     1       0.190   0.143  -0.106  1.00  0.00    -0.493 OA
BRANCH   4   5
ATOM      5  C   UNL     1      -0.456   1.364  -0.063  1.00  0.00     0.119 A 
ATOM      6  C   UNL     1      -1.932   3.741   0.036  1.00  0.00    -0.046 A 
ATOM      7  C   UNL     1      -2.586   2.507   0.066  1.00  0.00    -0.055 A 
ATOM      8  C   UNL     1      -0.540   3.787  -0.050  1.00  0.00    -0.055 A 
ATOM      9  C   UNL     1      -1.849   1.328   0.017  1.00  0.00    -0.020 A 
ATOM     10  H   UNL     1      -3.663   2.460   0.134  1.00  0.00     0.063 H 
ATOM     11  C   UNL     1       0.197   2.607  -0.097  1.00  0.00    -0.020 A 
ATOM     12  H   UNL     1      -0.026   4.737  -0.075  1.00  0.00     0.063 H 
ATOM     13  H   UNL     1      -2.363   0.379   0.046  1.00  0.00     0.066 H 
ATOM     14  H   UNL     1       1.272   2.678  -0.159  1.00  0.00     0.066 H 
BRANCH   6  15
ATOM     15  C   UNL     1      -2.740   5.039   0.088  1.00  0.00    -0.006 C 
ATOM     16  H   UNL     1      -2.245   5.779  -0.543  1.00  0.00     0.033 H 
ATOM     17  H   UNL     1      -3.701   4.870  -0.401  1.00  0.00     0.033 H 
BRANCH  15  18
ATOM     18  C   UNL     1      -2.973   5.644   1.501  1.00  0.00     0.095 C 
ATOM     19  S   UNL     1      -1.451   6.136   2.338  1.00  0.00    -0.108 SA
ATOM     20  C   UNL     1      -1.907   5.068   3.686  1.00  0.00     0.027 C 
ATOM     21  O   UNL     1      -1.137   4.963   4.651  1.00  0.00    -0.854 OA
ATOM     22  N   UNL     1      -3.007   4.449   3.616  1.00  0.00    -0.222 NA
ATOM     23  C   UNL     1      -3.706   4.691   2.458  1.00  0.00     0.259 C 
ATOM     24  H   UNL     1      -3.584   6.544   1.406  1.00  0.00     0.053 H 
ATOM     25  O   UNL     1      -4.807   4.210   2.194  1.00  0.00    -0.271 OA
ENDBRANCH  15  18
ENDBRANCH   6  15
ENDBRANCH   4   5
ENDBRANCH   1   4
BRANCH   1  26
ATOM     26  C   UNL     1       2.064  -1.360  -0.159  1.00  0.00     0.067 C 
ATOM     27  H   UNL     1       1.647  -1.891   0.699  1.00  0.00     0.041 H 
ATOM     28  H   UNL     1       1.654  -1.861  -1.038  1.00  0.00     0.041 H 
BRANCH  26  29
ATOM     29  C   UNL     1       3.577  -1.507  -0.151  1.00  0.00     0.183 A 
ATOM     30  N   UNL     1       4.235  -1.467  -1.330  1.00  0.00    -0.215 N 
ATOM     31  C   UNL     1       4.311  -1.641   1.032  1.00  0.00     0.006 A 
ATOM     32  C   UNL     1       5.576  -1.561  -1.433  1.00  0.00     0.170 A 
ATOM     33  H   UNL     1       3.695  -1.362  -2.177  1.00  0.00     0.453 HD
ATOM     34  C   UNL     1       5.704  -1.741   0.970  1.00  0.00    -0.047 A 
ATOM     35  H   UNL     1       3.810  -1.663   1.990  1.00  0.00     0.069 H 
ATOM     36  C   UNL     1       6.349  -1.701  -0.274  1.00  0.00     0.016 A 
ATOM     37  H   UNL     1       5.976  -1.519  -2.436  1.00  0.00     0.140 H 
ATOM     38  H   UNL     1       6.276  -1.846   1.881  1.00  0.00     0.063 H 
BRANCH  36  39
ATOM     39  C   UNL     1       7.863  -1.808  -0.362  1.00  0.00    -0.025 C 
ATOM     40  H   UNL     1       8.207  -1.362  -1.298  1.00  0.00     0.032 H 
ATOM     41  H   UNL     1       8.309  -1.199   0.426  1.00  0.00     0.032 H 
BRANCH  39  42
ATOM     42  C   UNL     1       8.365  -3.255  -0.259  1.00  0.00    -0.061 C 
ATOM     43  H   UNL     1       9.452  -3.295  -0.333  1.00  0.00     0.023 H 
ATOM     44  H   UNL     1       7.957  -3.874  -1.060  1.00  0.00     0.023 H 
ATOM     45  H   UNL     1       8.082  -3.708   0.692  1.00  0.00     0.023 H 
ENDBRANCH  39  42
ENDBRANCH  36  39
ENDBRANCH  26  29
ENDBRANCH   1  26
TORSDOF 8
