MODEL 1
REMARK VINA RESULT:      -5.9      0.000      0.000
REMARK  Name = 1u1b_ligand
REMARK  17 active torsions:
REMARK  status: ('A' for Active; 'I' for Inactive)
REMARK    1  A    between atoms: PA_1  and  O5_4
REMARK    2  A    between atoms: PA_1  and  O3A_8
REMARK    3  A    between atoms: O5_4  and  C5_23
REMARK    4  A    between atoms: PB_5  and  O3A_8
REMARK    5  A    between atoms: PB_5  and  O3_38
REMARK    6  A    between atoms: PG_9  and  O3_30
REMARK    7  A    between atoms: N9A_13  and  C1_26
REMARK    8  A    between atoms: C6A_18  and  N6A_19
REMARK    9  A    between atoms: C5_23  and  C4_24
REMARK   10  A    between atoms: C2_27  and  O2_28
REMARK   11  A    between atoms: C3_29  and  O3_30
REMARK   12  A    between atoms: O5_31  and  C5_32
REMARK   13  A    between atoms: O5_31  and  PD_39
REMARK   14  A    between atoms: C5_32  and  C4_33
REMARK   15  A    between atoms: C1_35  and  N1T_43
REMARK   16  A    between atoms: C3_37  and  O3_38
REMARK   17  A    between atoms: C5T_50  and  CM5_51
REMARK                            x       y       z     vdW  Elec       q    Type
REMARK                         _______ _______ _______ _____ _____    ______ ____
ROOT
ATOM      1  P   UNL     1     -29.100 -31.307  15.751  0.00  0.00    +0.297 P 
ATOM      2  O   UNL     1     -29.091 -32.731  16.320  0.00  0.00    -0.613 OA
ATOM      3  O   UNL     1     -30.441 -30.802  15.209  0.00  0.00    -0.613 OA
ENDROOT
BRANCH   1   4
ATOM      4  O   UNL     1     -27.961 -31.212  14.642  0.00  0.00    -0.248 OA
BRANCH   4   5
ATOM      5  C   UNL     1     -26.973 -32.211  14.525  0.00  0.00    +0.243 C 
BRANCH   5   6
ATOM      6  C   UNL     1     -25.621 -31.574  14.470  0.00  0.00    +0.189 C 
ATOM      7  C   UNL     1     -24.919 -31.731  13.120  0.00  0.00    +0.219 C 
ATOM      8  C   UNL     1     -23.670 -32.558  13.463  0.00  0.00    +0.211 C 
ATOM      9  C   UNL     1     -23.423 -32.185  14.938  0.00  0.00    +0.301 C 
ATOM     10  O   UNL     1     -24.732 -32.182  15.465  0.00  0.00    -0.336 OA
BRANCH   9  11
ATOM     11  N   UNL     1     -22.514 -33.031  15.770  0.00  0.00    -0.192 N 
ATOM     12  C   UNL     1     -22.887 -33.612  16.972  0.00  0.00    +0.247 A 
ATOM     13  N   UNL     1     -21.944 -34.320  17.558  0.00  0.00    -0.296 NA
ATOM     14  C   UNL     1     -20.861 -34.211  16.698  0.00  0.00    +0.104 A 
ATOM     15  C   UNL     1     -19.520 -34.740  16.735  0.00  0.00    +0.130 A 
ATOM     16  N   UNL     1     -18.665 -34.439  15.696  0.00  0.00    -0.270 NA
ATOM     17  C   UNL     1     -19.123 -33.651  14.672  0.00  0.00    +0.153 A 
ATOM     18  N   UNL     1     -20.367 -33.097  14.532  0.00  0.00    -0.271 NA
ATOM     19  C   UNL     1     -21.193 -33.415  15.578  0.00  0.00    +0.161 A 
BRANCH  15  20
ATOM     20  N   UNL     1     -19.059 -35.502  17.722  0.00  0.00    -0.315 N 
ATOM     21  H   UNL     1     -18.177 -35.256  18.196  0.00  0.00    +0.182 HD
ATOM     22  H   UNL     1     -19.583 -36.340  18.014  0.00  0.00    +0.182 HD
ENDBRANCH  15  20
ENDBRANCH   9  11
BRANCH   8  23
ATOM     23  O   UNL     1     -22.551 -32.322  12.620  0.00  0.00    -0.383 OA
ATOM     24  H   UNL     1     -21.757 -32.318  13.143  0.00  0.00    +0.210 HD
ENDBRANCH   8  23
BRANCH   7  25
ATOM     25  O   UNL     1     -24.573 -30.418  12.670  0.00  0.00    -0.267 OA
BRANCH  25  26
ATOM     26  P   UNL     1     -25.450 -29.617  11.546  0.00  0.00    +0.201 P 
ATOM     27  O   UNL     1     -25.833 -30.602  10.427  0.00  0.00    -0.554 OA
ATOM     28  O   UNL     1     -24.533 -28.517  11.026  0.00  0.00    -0.554 OA
ATOM     29  O   UNL     1     -26.691 -29.086  12.261  0.00  0.00    -0.554 OA
ENDBRANCH  25  26
ENDBRANCH   7  25
ENDBRANCH   5   6
ENDBRANCH   4   5
ENDBRANCH   1   4
BRANCH   1  30
ATOM     30  O   UNL     1     -28.543 -30.305  16.847  0.00  0.00    -0.132 OA
BRANCH  30  31
ATOM     31  P   UNL     1     -29.125 -29.723  18.193  0.00  0.00    +0.297 P 
ATOM     32  O   UNL     1     -27.995 -29.524  19.128  0.00  0.00    -0.613 OA
ATOM     33  O   UNL     1     -30.262 -30.560  18.622  0.00  0.00    -0.613 OA
BRANCH  31  34
ATOM     34  O   UNL     1     -29.577 -28.218  17.771  0.00  0.00    -0.244 OA
BRANCH  34  35
ATOM     35  C   UNL     1     -30.792 -27.974  17.059  0.00  0.00    +0.197 C 
ATOM     36  C   UNL     1     -31.902 -27.625  18.035  0.00  0.00    +0.106 C 
ATOM     37  C   UNL     1     -31.802 -26.109  18.134  0.00  0.00    +0.272 C 
ATOM     38  O   UNL     1     -31.398 -25.666  16.854  0.00  0.00    -0.339 OA
ATOM     39  C   UNL     1     -30.630 -26.713  16.200  0.00  0.00    +0.186 C 
BRANCH  37  40
ATOM     40  N   UNL     1     -33.110 -25.469  18.503  0.00  0.00    -0.174 N 
ATOM     41  C   UNL     1     -33.055 -24.207  19.144  0.00  0.00    +0.327 A 
ATOM     42  N   UNL     1     -34.297 -23.664  19.466  0.00  0.00    -0.186 N 
ATOM     43  H   UNL     1     -34.290 -22.772  19.921  0.00  0.00    +0.226 HD
ATOM     44  C   UNL     1     -35.563 -24.233  19.221  0.00  0.00    +0.193 A 
ATOM     45  C   UNL     1     -35.545 -25.536  18.548  0.00  0.00    +0.022 A 
ATOM     46  C   UNL     1     -36.817 -26.257  18.228  0.00  0.00    +0.045 C 
ATOM     47  O   UNL     1     -36.567 -23.618  19.586  0.00  0.00    -0.408 OA
ATOM     48  O   UNL     1     -32.020 -23.638  19.400  0.00  0.00    -0.384 OA
ATOM     49  C   UNL     1     -34.354 -26.092  18.225  0.00  0.00    +0.153 A 
ENDBRANCH  37  40
BRANCH  39  50
ATOM     50  C   UNL     1     -31.098 -26.892  14.765  0.00  0.00    +0.235 C 
BRANCH  50  51
ATOM     51  O   UNL     1     -30.268 -26.130  13.854  0.00  0.00    -0.273 OA
BRANCH  51  52
ATOM     52  P   UNL     1     -30.752 -25.761  12.324  0.00  0.00    +0.201 P 
ATOM     53  O   UNL     1     -32.233 -25.356  12.428  0.00  0.00    -0.554 OA
ATOM     54  O   UNL     1     -29.843 -24.606  11.845  0.00  0.00    -0.554 OA
ATOM     55  O   UNL     1     -30.549 -27.055  11.513  0.00  0.00    -0.554 OA
ENDBRANCH  51  52
ENDBRANCH  50  51
ENDBRANCH  39  50
ENDBRANCH  34  35
ENDBRANCH  31  34
ENDBRANCH  30  31
ENDBRANCH   1  30
TORSDOF 16
ENDMDL
MODEL 2
REMARK VINA RESULT:      -5.8      3.042     12.616
REMARK  Name = 1u1b_ligand
REMARK  17 active torsions:
REMARK  status: ('A' for Active; 'I' for Inactive)
REMARK    1  A    between atoms: PA_1  and  O5_4
REMARK    2  A    between atoms: PA_1  and  O3A_8
REMARK    3  A    between atoms: O5_4  and  C5_23
REMARK    4  A    between atoms: PB_5  and  O3A_8
REMARK    5  A    between atoms: PB_5  and  O3_38
REMARK    6  A    between atoms: PG_9  and  O3_30
REMARK    7  A    between atoms: N9A_13  and  C1_26
REMARK    8  A    between atoms: C6A_18  and  N6A_19
REMARK    9  A    between atoms: C5_23  and  C4_24
REMARK   10  A    between atoms: C2_27  and  O2_28
REMARK   11  A    between atoms: C3_29  and  O3_30
REMARK   12  A    between atoms: O5_31  and  C5_32
REMARK   13  A    between atoms: O5_31  and  PD_39
REMARK   14  A    between atoms: C5_32  and  C4_33
REMARK   15  A    between atoms: C1_35  and  N1T_43
REMARK   16  A    between atoms: C3_37  and  O3_38
REMARK   17  A    between atoms: C5T_50  and  CM5_51
REMARK                            x       y       z     vdW  Elec       q    Type
REMARK                         _______ _______ _______ _____ _____    ______ ____
ROOT
ATOM      1  P   UNL     1     -30.289 -29.906  17.521  0.00  0.00    +0.297 P 
ATOM      2  O   UNL     1     -29.279 -29.082  16.714  0.00  0.00    -0.613 OA
ATOM      3  O   UNL     1     -31.280 -30.746  16.710  0.00  0.00    -0.613 OA
ENDROOT
BRANCH   1   4
ATOM      4  O   UNL     1     -31.051 -28.918  18.512  0.00  0.00    -0.248 OA
BRANCH   4   5
ATOM      5  C   UNL     1     -31.356 -27.595  18.130  0.00  0.00    +0.243 C 
BRANCH   5   6
ATOM      6  C   UNL     1     -32.717 -27.555  17.512  0.00  0.00    +0.189 C 
ATOM      7  C   UNL     1     -33.378 -26.177  17.565  0.00  0.00    +0.219 C 
ATOM      8  C   UNL     1     -34.621 -26.413  18.437  0.00  0.00    +0.211 C 
ATOM      9  C   UNL     1     -34.916 -27.906  18.194  0.00  0.00    +0.301 C 
ATOM     10  O   UNL     1     -33.623 -28.469  18.215  0.00  0.00    -0.336 OA
BRANCH   9  11
ATOM     11  N   UNL     1     -35.832 -28.638  19.121  0.00  0.00    -0.192 N 
ATOM     12  C   UNL     1     -36.108 -29.993  19.022  0.00  0.00    +0.247 A 
ATOM     13  N   UNL     1     -36.942 -30.453  19.932  0.00  0.00    -0.296 NA
ATOM     14  C   UNL     1     -37.252 -29.337  20.696  0.00  0.00    +0.104 A 
ATOM     15  C   UNL     1     -38.103 -29.137  21.844  0.00  0.00    +0.130 A 
ATOM     16  N   UNL     1     -38.196 -27.872  22.382  0.00  0.00    -0.270 NA
ATOM     17  C   UNL     1     -37.477 -26.856  21.806  0.00  0.00    +0.153 A 
ATOM     18  N   UNL     1     -36.645 -26.927  20.722  0.00  0.00    -0.271 NA
ATOM     19  C   UNL     1     -36.572 -28.197  20.211  0.00  0.00    +0.161 A 
BRANCH  15  20
ATOM     20  N   UNL     1     -38.808 -30.111  22.412  0.00  0.00    -0.315 N 
ATOM     21  H   UNL     1     -38.326 -30.902  22.864  0.00  0.00    +0.182 HD
ATOM     22  H   UNL     1     -39.838 -30.076  22.400  0.00  0.00    +0.182 HD
ENDBRANCH  15  20
ENDBRANCH   9  11
BRANCH   8  23
ATOM     23  O   UNL     1     -35.721 -25.560  18.149  0.00  0.00    -0.383 OA
ATOM     24  H   UNL     1     -36.532 -26.004  18.372  0.00  0.00    +0.210 HD
ENDBRANCH   8  23
BRANCH   7  25
ATOM     25  O   UNL     1     -33.736 -25.829  16.224  0.00  0.00    -0.267 OA
BRANCH  25  26
ATOM     26  P   UNL     1     -33.105 -24.528  15.459  0.00  0.00    +0.201 P 
ATOM     27  O   UNL     1     -33.050 -24.825  13.949  0.00  0.00    -0.554 OA
ATOM     28  O   UNL     1     -31.707 -24.357  16.040  0.00  0.00    -0.554 OA
ATOM     29  O   UNL     1     -34.035 -23.354  15.757  0.00  0.00    -0.554 OA
ENDBRANCH  25  26
ENDBRANCH   7  25
ENDBRANCH   5   6
ENDBRANCH   4   5
ENDBRANCH   1   4
BRANCH   1  30
ATOM     30  O   UNL     1     -29.507 -30.826  18.549  0.00  0.00    -0.132 OA
BRANCH  30  31
ATOM     31  P   UNL     1     -27.987 -31.204  18.742  0.00  0.00    +0.297 P 
ATOM     32  O   UNL     1     -27.899 -32.176  19.854  0.00  0.00    -0.613 OA
ATOM     33  O   UNL     1     -27.193 -29.962  18.818  0.00  0.00    -0.613 OA
BRANCH  31  34
ATOM     34  O   UNL     1     -27.660 -32.076  17.408  0.00  0.00    -0.244 OA
BRANCH  34  35
ATOM     35  C   UNL     1     -26.521 -31.797  16.592  0.00  0.00    +0.197 C 
ATOM     36  C   UNL     1     -25.247 -32.122  17.353  0.00  0.00    +0.106 C 
ATOM     37  C   UNL     1     -24.996 -33.579  16.987  0.00  0.00    +0.272 C 
ATOM     38  O   UNL     1     -25.449 -33.724  15.656  0.00  0.00    -0.339 OA
ATOM     39  C   UNL     1     -26.506 -32.759  15.397  0.00  0.00    +0.186 C 
BRANCH  37  40
ATOM     40  N   UNL     1     -23.543 -33.951  17.071  0.00  0.00    -0.174 N 
ATOM     41  C   UNL     1     -23.025 -34.254  18.354  0.00  0.00    +0.327 A 
ATOM     42  N   UNL     1     -21.673 -34.588  18.371  0.00  0.00    -0.186 N 
ATOM     43  H   UNL     1     -21.280 -34.808  19.265  0.00  0.00    +0.226 HD
ATOM     44  C   UNL     1     -20.799 -34.649  17.268  0.00  0.00    +0.193 A 
ATOM     45  C   UNL     1     -21.402 -34.329  15.970  0.00  0.00    +0.022 A 
ATOM     46  C   UNL     1     -20.590 -34.354  14.714  0.00  0.00    +0.045 C 
ATOM     47  O   UNL     1     -19.619 -34.951  17.465  0.00  0.00    -0.408 OA
ATOM     48  O   UNL     1     -23.693 -34.227  19.361  0.00  0.00    -0.384 OA
ATOM     49  C   UNL     1     -22.714 -33.999  15.920  0.00  0.00    +0.153 A 
ENDBRANCH  37  40
BRANCH  39  50
ATOM     50  C   UNL     1     -26.274 -32.068  14.063  0.00  0.00    +0.235 C 
BRANCH  50  51
ATOM     51  O   UNL     1     -25.416 -32.867  13.212  0.00  0.00    -0.273 OA
BRANCH  51  52
ATOM     52  P   UNL     1     -24.232 -32.199  12.283  0.00  0.00    +0.201 P 
ATOM     53  O   UNL     1     -24.873 -30.993  11.573  0.00  0.00    -0.554 OA
ATOM     54  O   UNL     1     -23.094 -31.797  13.248  0.00  0.00    -0.554 OA
ATOM     55  O   UNL     1     -23.816 -33.310  11.299  0.00  0.00    -0.554 OA
ENDBRANCH  51  52
ENDBRANCH  50  51
ENDBRANCH  39  50
ENDBRANCH  34  35
ENDBRANCH  31  34
ENDBRANCH  30  31
ENDBRANCH   1  30
TORSDOF 16
ENDMDL
MODEL 3
REMARK VINA RESULT:      -5.5      5.476     12.720
REMARK  Name = 1u1b_ligand
REMARK  17 active torsions:
REMARK  status: ('A' for Active; 'I' for Inactive)
REMARK    1  A    between atoms: PA_1  and  O5_4
REMARK    2  A    between atoms: PA_1  and  O3A_8
REMARK    3  A    between atoms: O5_4  and  C5_23
REMARK    4  A    between atoms: PB_5  and  O3A_8
REMARK    5  A    between atoms: PB_5  and  O3_38
REMARK    6  A    between atoms: PG_9  and  O3_30
REMARK    7  A    between atoms: N9A_13  and  C1_26
REMARK    8  A    between atoms: C6A_18  and  N6A_19
REMARK    9  A    between atoms: C5_23  and  C4_24
REMARK   10  A    between atoms: C2_27  and  O2_28
REMARK   11  A    between atoms: C3_29  and  O3_30
REMARK   12  A    between atoms: O5_31  and  C5_32
REMARK   13  A    between atoms: O5_31  and  PD_39
REMARK   14  A    between atoms: C5_32  and  C4_33
REMARK   15  A    between atoms: C1_35  and  N1T_43
REMARK   16  A    between atoms: C3_37  and  O3_38
REMARK   17  A    between atoms: C5T_50  and  CM5_51
REMARK                            x       y       z     vdW  Elec       q    Type
REMARK                         _______ _______ _______ _____ _____    ______ ____
ROOT
ATOM      1  P   UNL     1     -34.392 -36.602  16.868  0.00  0.00    +0.297 P 
ATOM      2  O   UNL     1     -35.410 -37.206  15.893  0.00  0.00    -0.613 OA
ATOM      3  O   UNL     1     -33.512 -37.596  17.631  0.00  0.00    -0.613 OA
ENDROOT
BRANCH   1   4
ATOM      4  O   UNL     1     -35.178 -35.644  17.870  0.00  0.00    -0.248 OA
BRANCH   4   5
ATOM      5  C   UNL     1     -35.280 -35.952  19.242  0.00  0.00    +0.243 C 
BRANCH   5   6
ATOM      6  C   UNL     1     -34.982 -34.730  20.052  0.00  0.00    +0.189 C 
ATOM      7  C   UNL     1     -36.171 -34.232  20.874  0.00  0.00    +0.219 C 
ATOM      8  C   UNL     1     -36.449 -32.839  20.287  0.00  0.00    +0.211 C 
ATOM      9  C   UNL     1     -35.064 -32.423  19.757  0.00  0.00    +0.301 C 
ATOM     10  O   UNL     1     -34.598 -33.620  19.175  0.00  0.00    -0.336 OA
BRANCH   9  11
ATOM     11  N   UNL     1     -34.954 -31.283  18.795  0.00  0.00    -0.192 N 
ATOM     12  C   UNL     1     -34.063 -31.254  17.733  0.00  0.00    +0.247 A 
ATOM     13  N   UNL     1     -34.118 -30.162  16.999  0.00  0.00    -0.296 NA
ATOM     14  C   UNL     1     -35.108 -29.402  17.603  0.00  0.00    +0.104 A 
ATOM     15  C   UNL     1     -35.667 -28.105  17.310  0.00  0.00    +0.130 A 
ATOM     16  N   UNL     1     -36.668 -27.620  18.125  0.00  0.00    -0.270 NA
ATOM     17  C   UNL     1     -37.091 -28.389  19.178  0.00  0.00    +0.153 A 
ATOM     18  N   UNL     1     -36.637 -29.626  19.550  0.00  0.00    -0.271 NA
ATOM     19  C   UNL     1     -35.645 -30.080  18.721  0.00  0.00    +0.161 A 
BRANCH  15  20
ATOM     20  N   UNL     1     -35.266 -27.345  16.295  0.00  0.00    -0.315 N 
ATOM     21  H   UNL     1     -35.784 -27.359  15.403  0.00  0.00    +0.182 HD
ATOM     22  H   UNL     1     -34.437 -26.743  16.398  0.00  0.00    +0.182 HD
ENDBRANCH  15  20
ENDBRANCH   9  11
BRANCH   8  23
ATOM     23  O   UNL     1     -37.013 -31.909  21.202  0.00  0.00    -0.383 OA
ATOM     24  H   UNL     1     -37.087 -31.059  20.783  0.00  0.00    +0.210 HD
ENDBRANCH   8  23
BRANCH   7  25
ATOM     25  O   UNL     1     -35.738 -34.151  22.236  0.00  0.00    -0.267 OA
BRANCH  25  26
ATOM     26  P   UNL     1     -36.656 -34.685  23.480  0.00  0.00    +0.201 P 
ATOM     27  O   UNL     1     -35.839 -34.566  24.779  0.00  0.00    -0.554 OA
ATOM     28  O   UNL     1     -36.969 -36.140  23.155  0.00  0.00    -0.554 OA
ATOM     29  O   UNL     1     -37.893 -33.791  23.523  0.00  0.00    -0.554 OA
ENDBRANCH  25  26
ENDBRANCH   7  25
ENDBRANCH   5   6
ENDBRANCH   4   5
ENDBRANCH   1   4
BRANCH   1  30
ATOM     30  O   UNL     1     -33.487 -35.556  16.093  0.00  0.00    -0.132 OA
BRANCH  30  31
ATOM     31  P   UNL     1     -33.189 -35.288  14.566  0.00  0.00    +0.297 P 
ATOM     32  O   UNL     1     -33.711 -33.944  14.231  0.00  0.00    -0.613 OA
ATOM     33  O   UNL     1     -33.654 -36.446  13.779  0.00  0.00    -0.613 OA
BRANCH  31  34
ATOM     34  O   UNL     1     -31.571 -35.118  14.538  0.00  0.00    -0.244 OA
BRANCH  34  35
ATOM     35  C   UNL     1     -30.889 -34.293  15.485  0.00  0.00    +0.197 C 
ATOM     36  C   UNL     1     -29.575 -34.943  15.885  0.00  0.00    +0.106 C 
ATOM     37  C   UNL     1     -28.593 -34.374  14.870  0.00  0.00    +0.272 C 
ATOM     38  O   UNL     1     -29.036 -33.059  14.603  0.00  0.00    -0.339 OA
ATOM     39  C   UNL     1     -30.474 -32.982  14.807  0.00  0.00    +0.186 C 
BRANCH  37  40
ATOM     40  N   UNL     1     -27.184 -34.339  15.390  0.00  0.00    -0.174 N 
ATOM     41  C   UNL     1     -26.144 -34.575  14.458  0.00  0.00    +0.327 A 
ATOM     42  N   UNL     1     -24.860 -34.533  14.997  0.00  0.00    -0.186 N 
ATOM     43  H   UNL     1     -24.105 -34.697  14.361  0.00  0.00    +0.226 HD
ATOM     44  C   UNL     1     -24.510 -34.288  16.339  0.00  0.00    +0.193 A 
ATOM     45  C   UNL     1     -25.635 -34.046  17.248  0.00  0.00    +0.022 A 
ATOM     46  C   UNL     1     -25.409 -33.773  18.702  0.00  0.00    +0.045 C 
ATOM     47  O   UNL     1     -23.316 -34.302  16.650  0.00  0.00    -0.408 OA
ATOM     48  O   UNL     1     -26.342 -34.797  13.286  0.00  0.00    -0.384 OA
ATOM     49  C   UNL     1     -26.896 -34.081  16.755  0.00  0.00    +0.153 A 
ENDBRANCH  37  40
BRANCH  39  50
ATOM     50  C   UNL     1     -30.825 -31.742  15.615  0.00  0.00    +0.235 C 
BRANCH  50  51
ATOM     51  O   UNL     1     -30.688 -31.997  17.034  0.00  0.00    -0.273 OA
BRANCH  51  52
ATOM     52  P   UNL     1     -29.596 -31.195  17.969  0.00  0.00    +0.201 P 
ATOM     53  O   UNL     1     -28.900 -32.264  18.830  0.00  0.00    -0.554 OA
ATOM     54  O   UNL     1     -28.630 -30.480  16.997  0.00  0.00    -0.554 OA
ATOM     55  O   UNL     1     -30.431 -30.210  18.811  0.00  0.00    -0.554 OA
ENDBRANCH  51  52
ENDBRANCH  50  51
ENDBRANCH  39  50
ENDBRANCH  34  35
ENDBRANCH  31  34
ENDBRANCH  30  31
ENDBRANCH   1  30
TORSDOF 16
ENDMDL
MODEL 4
REMARK VINA RESULT:      -5.4      4.857      8.141
REMARK  Name = 1u1b_ligand
REMARK  17 active torsions:
REMARK  status: ('A' for Active; 'I' for Inactive)
REMARK    1  A    between atoms: PA_1  and  O5_4
REMARK    2  A    between atoms: PA_1  and  O3A_8
REMARK    3  A    between atoms: O5_4  and  C5_23
REMARK    4  A    between atoms: PB_5  and  O3A_8
REMARK    5  A    between atoms: PB_5  and  O3_38
REMARK    6  A    between atoms: PG_9  and  O3_30
REMARK    7  A    between atoms: N9A_13  and  C1_26
REMARK    8  A    between atoms: C6A_18  and  N6A_19
REMARK    9  A    between atoms: C5_23  and  C4_24
REMARK   10  A    between atoms: C2_27  and  O2_28
REMARK   11  A    between atoms: C3_29  and  O3_30
REMARK   12  A    between atoms: O5_31  and  C5_32
REMARK   13  A    between atoms: O5_31  and  PD_39
REMARK   14  A    between atoms: C5_32  and  C4_33
REMARK   15  A    between atoms: C1_35  and  N1T_43
REMARK   16  A    between atoms: C3_37  and  O3_38
REMARK   17  A    between atoms: C5T_50  and  CM5_51
REMARK                            x       y       z     vdW  Elec       q    Type
REMARK                         _______ _______ _______ _____ _____    ______ ____
ROOT
ATOM      1  P   UNL     1     -24.605 -34.189  12.604  0.00  0.00    +0.297 P 
ATOM      2  O   UNL     1     -25.636 -35.244  13.021  0.00  0.00    -0.613 OA
ATOM      3  O   UNL     1     -23.446 -34.680  11.732  0.00  0.00    -0.613 OA
ENDROOT
BRANCH   1   4
ATOM      4  O   UNL     1     -24.067 -33.476  13.924  0.00  0.00    -0.248 OA
BRANCH   4   5
ATOM      5  C   UNL     1     -24.520 -32.193  14.295  0.00  0.00    +0.243 C 
BRANCH   5   6
ATOM      6  C   UNL     1     -24.940 -32.207  15.730  0.00  0.00    +0.189 C 
ATOM      7  C   UNL     1     -24.789 -33.572  16.404  0.00  0.00    +0.219 C 
ATOM      8  C   UNL     1     -26.233 -33.946  16.774  0.00  0.00    +0.211 C 
ATOM      9  C   UNL     1     -26.901 -32.567  16.933  0.00  0.00    +0.301 C 
ATOM     10  O   UNL     1     -26.357 -31.848  15.848  0.00  0.00    -0.336 OA
BRANCH   9  11
ATOM     11  N   UNL     1     -28.393 -32.467  16.946  0.00  0.00    -0.192 N 
ATOM     12  C   UNL     1     -29.238 -33.520  16.638  0.00  0.00    +0.247 A 
ATOM     13  N   UNL     1     -30.522 -33.233  16.705  0.00  0.00    -0.296 NA
ATOM     14  C   UNL     1     -30.547 -31.899  17.081  0.00  0.00    +0.104 A 
ATOM     15  C   UNL     1     -31.621 -30.969  17.332  0.00  0.00    +0.130 A 
ATOM     16  N   UNL     1     -31.302 -29.679  17.701  0.00  0.00    -0.270 NA
ATOM     17  C   UNL     1     -29.980 -29.334  17.814  0.00  0.00    +0.153 A 
ATOM     18  N   UNL     1     -28.885 -30.127  17.603  0.00  0.00    -0.271 NA
ATOM     19  C   UNL     1     -29.234 -31.401  17.240  0.00  0.00    +0.161 A 
BRANCH  15  20
ATOM     20  N   UNL     1     -32.907 -31.287  17.222  0.00  0.00    -0.315 N 
ATOM     21  H   UNL     1     -33.381 -31.795  17.984  0.00  0.00    +0.182 HD
ATOM     22  H   UNL     1     -33.433 -31.027  16.375  0.00  0.00    +0.182 HD
ENDBRANCH  15  20
ENDBRANCH   9  11
BRANCH   8  23
ATOM     23  O   UNL     1     -26.357 -34.776  17.921  0.00  0.00    -0.383 OA
ATOM     24  H   UNL     1     -25.639 -34.599  18.518  0.00  0.00    +0.210 HD
ENDBRANCH   8  23
BRANCH   7  25
ATOM     25  O   UNL     1     -23.981 -33.379  17.569  0.00  0.00    -0.267 OA
BRANCH  25  26
ATOM     26  P   UNL     1     -22.416 -33.848  17.637  0.00  0.00    +0.201 P 
ATOM     27  O   UNL     1     -21.984 -33.906  19.113  0.00  0.00    -0.554 OA
ATOM     28  O   UNL     1     -21.642 -32.780  16.876  0.00  0.00    -0.554 OA
ATOM     29  O   UNL     1     -22.347 -35.229  16.988  0.00  0.00    -0.554 OA
ENDBRANCH  25  26
ENDBRANCH   7  25
ENDBRANCH   5   6
ENDBRANCH   4   5
ENDBRANCH   1   4
BRANCH   1  30
ATOM     30  O   UNL     1     -25.352 -32.985  11.891  0.00  0.00    -0.132 OA
BRANCH  30  31
ATOM     31  P   UNL     1     -25.414 -32.466  10.402  0.00  0.00    +0.297 P 
ATOM     32  O   UNL     1     -25.903 -33.576   9.554  0.00  0.00    -0.613 OA
ATOM     33  O   UNL     1     -24.125 -31.829  10.065  0.00  0.00    -0.613 OA
BRANCH  31  34
ATOM     34  O   UNL     1     -26.647 -31.405  10.441  0.00  0.00    -0.244 OA
BRANCH  34  35
ATOM     35  C   UNL     1     -27.542 -31.338  11.552  0.00  0.00    +0.197 C 
ATOM     36  C   UNL     1     -27.195 -30.145  12.426  0.00  0.00    +0.106 C 
ATOM     37  C   UNL     1     -28.046 -29.031  11.833  0.00  0.00    +0.272 C 
ATOM     38  O   UNL     1     -29.235 -29.652  11.388  0.00  0.00    -0.339 OA
ATOM     39  C   UNL     1     -28.958 -31.037  11.043  0.00  0.00    +0.186 C 
BRANCH  37  40
ATOM     40  N   UNL     1     -28.377 -27.964  12.837  0.00  0.00    -0.174 N 
ATOM     41  C   UNL     1     -29.315 -28.293  13.846  0.00  0.00    +0.327 A 
ATOM     42  N   UNL     1     -29.586 -27.265  14.746  0.00  0.00    -0.186 N 
ATOM     43  H   UNL     1     -30.246 -27.469  15.471  0.00  0.00    +0.226 HD
ATOM     44  C   UNL     1     -29.033 -25.969  14.747  0.00  0.00    +0.193 A 
ATOM     45  C   UNL     1     -28.065 -25.698  13.678  0.00  0.00    +0.022 A 
ATOM     46  C   UNL     1     -27.401 -24.363  13.558  0.00  0.00    +0.045 C 
ATOM     47  O   UNL     1     -29.397 -25.172  15.615  0.00  0.00    -0.408 OA
ATOM     48  O   UNL     1     -29.847 -29.376  13.929  0.00  0.00    -0.384 OA
ATOM     49  C   UNL     1     -27.782 -26.677  12.787  0.00  0.00    +0.153 A 
ENDBRANCH  37  40
BRANCH  39  50
ATOM     50  C   UNL     1     -30.022 -31.950  11.632  0.00  0.00    +0.235 C 
BRANCH  50  51
ATOM     51  O   UNL     1     -31.241 -31.889  10.851  0.00  0.00    -0.273 OA
BRANCH  51  52
ATOM     52  P   UNL     1     -32.619 -32.663  11.313  0.00  0.00    +0.201 P 
ATOM     53  O   UNL     1     -33.200 -31.845  12.480  0.00  0.00    -0.554 OA
ATOM     54  O   UNL     1     -33.543 -32.687  10.074  0.00  0.00    -0.554 OA
ATOM     55  O   UNL     1     -32.166 -34.071  11.746  0.00  0.00    -0.554 OA
ENDBRANCH  51  52
ENDBRANCH  50  51
ENDBRANCH  39  50
ENDBRANCH  34  35
ENDBRANCH  31  34
ENDBRANCH  30  31
ENDBRANCH   1  30
TORSDOF 16
ENDMDL
MODEL 5
REMARK VINA RESULT:      -5.2      4.954      6.722
REMARK  Name = 1u1b_ligand
REMARK  17 active torsions:
REMARK  status: ('A' for Active; 'I' for Inactive)
REMARK    1  A    between atoms: PA_1  and  O5_4
REMARK    2  A    between atoms: PA_1  and  O3A_8
REMARK    3  A    between atoms: O5_4  and  C5_23
REMARK    4  A    between atoms: PB_5  and  O3A_8
REMARK    5  A    between atoms: PB_5  and  O3_38
REMARK    6  A    between atoms: PG_9  and  O3_30
REMARK    7  A    between atoms: N9A_13  and  C1_26
REMARK    8  A    between atoms: C6A_18  and  N6A_19
REMARK    9  A    between atoms: C5_23  and  C4_24
REMARK   10  A    between atoms: C2_27  and  O2_28
REMARK   11  A    between atoms: C3_29  and  O3_30
REMARK   12  A    between atoms: O5_31  and  C5_32
REMARK   13  A    between atoms: O5_31  and  PD_39
REMARK   14  A    between atoms: C5_32  and  C4_33
REMARK   15  A    between atoms: C1_35  and  N1T_43
REMARK   16  A    between atoms: C3_37  and  O3_38
REMARK   17  A    between atoms: C5T_50  and  CM5_51
REMARK                            x       y       z     vdW  Elec       q    Type
REMARK                         _______ _______ _______ _____ _____    ______ ____
ROOT
ATOM      1  P   UNL     1     -30.712 -33.177  14.136  0.00  0.00    +0.297 P 
ATOM      2  O   UNL     1     -30.613 -31.649  14.053  0.00  0.00    -0.613 OA
ATOM      3  O   UNL     1     -30.222 -33.818  15.438  0.00  0.00    -0.613 OA
ENDROOT
BRANCH   1   4
ATOM      4  O   UNL     1     -29.957 -33.789  12.874  0.00  0.00    -0.248 OA
BRANCH   4   5
ATOM      5  C   UNL     1     -29.628 -35.159  12.817  0.00  0.00    +0.243 C 
BRANCH   5   6
ATOM      6  C   UNL     1     -28.184 -35.313  12.459  0.00  0.00    +0.189 C 
ATOM      7  C   UNL     1     -27.661 -36.743  12.605  0.00  0.00    +0.219 C 
ATOM      8  C   UNL     1     -26.586 -36.618  13.695  0.00  0.00    +0.211 C 
ATOM      9  C   UNL     1     -26.129 -35.155  13.541  0.00  0.00    +0.301 C 
ATOM     10  O   UNL     1     -27.352 -34.483  13.336  0.00  0.00    -0.336 OA
BRANCH   9  11
ATOM     11  N   UNL     1     -25.342 -34.508  14.637  0.00  0.00    -0.192 N 
ATOM     12  C   UNL     1     -24.016 -34.124  14.510  0.00  0.00    +0.247 A 
ATOM     13  N   UNL     1     -23.498 -33.573  15.588  0.00  0.00    -0.296 NA
ATOM     14  C   UNL     1     -24.539 -33.585  16.504  0.00  0.00    +0.104 A 
ATOM     15  C   UNL     1     -24.652 -33.136  17.870  0.00  0.00    +0.130 A 
ATOM     16  N   UNL     1     -25.857 -33.296  18.519  0.00  0.00    -0.270 NA
ATOM     17  C   UNL     1     -26.899 -33.874  17.840  0.00  0.00    +0.153 A 
ATOM     18  N   UNL     1     -26.908 -34.335  16.551  0.00  0.00    -0.271 NA
ATOM     19  C   UNL     1     -25.697 -34.161  15.934  0.00  0.00    +0.161 A 
BRANCH  15  20
ATOM     20  N   UNL     1     -23.650 -32.577  18.543  0.00  0.00    -0.315 N 
ATOM     21  H   UNL     1     -23.738 -32.411  19.557  0.00  0.00    +0.182 HD
ATOM     22  H   UNL     1     -22.785 -32.309  18.052  0.00  0.00    +0.182 HD
ENDBRANCH  15  20
ENDBRANCH   9  11
BRANCH   8  23
ATOM     23  O   UNL     1     -25.527 -37.560  13.597  0.00  0.00    -0.383 OA
ATOM     24  H   UNL     1     -24.885 -37.385  14.276  0.00  0.00    +0.210 HD
ENDBRANCH   8  23
BRANCH   7  25
ATOM     25  O   UNL     1     -27.092 -37.114  11.346  0.00  0.00    -0.267 OA
BRANCH  25  26
ATOM     26  P   UNL     1     -27.252 -38.616  10.720  0.00  0.00    +0.201 P 
ATOM     27  O   UNL     1     -26.083 -39.484  11.221  0.00  0.00    -0.554 OA
ATOM     28  O   UNL     1     -27.198 -38.433   9.209  0.00  0.00    -0.554 OA
ATOM     29  O   UNL     1     -28.592 -39.154  11.220  0.00  0.00    -0.554 OA
ENDBRANCH  25  26
ENDBRANCH   7  25
ENDBRANCH   5   6
ENDBRANCH   4   5
ENDBRANCH   1   4
BRANCH   1  30
ATOM     30  O   UNL     1     -32.206 -33.618  13.840  0.00  0.00    -0.132 OA
BRANCH  30  31
ATOM     31  P   UNL     1     -33.249 -34.527  14.600  0.00  0.00    +0.297 P 
ATOM     32  O   UNL     1     -32.741 -35.917  14.576  0.00  0.00    -0.613 OA
ATOM     33  O   UNL     1     -34.598 -34.253  14.067  0.00  0.00    -0.613 OA
BRANCH  31  34
ATOM     34  O   UNL     1     -33.079 -34.055  16.148  0.00  0.00    -0.244 OA
BRANCH  34  35
ATOM     35  C   UNL     1     -33.515 -32.769  16.591  0.00  0.00    +0.197 C 
ATOM     36  C   UNL     1     -34.677 -32.922  17.559  0.00  0.00    +0.106 C 
ATOM     37  C   UNL     1     -33.982 -33.013  18.911  0.00  0.00    +0.272 C 
ATOM     38  O   UNL     1     -32.843 -32.182  18.814  0.00  0.00    -0.339 OA
ATOM     39  C   UNL     1     -32.407 -32.119  17.428  0.00  0.00    +0.186 C 
BRANCH  37  40
ATOM     40  N   UNL     1     -34.856 -32.546  20.039  0.00  0.00    -0.174 N 
ATOM     41  C   UNL     1     -34.728 -33.219  21.279  0.00  0.00    +0.327 A 
ATOM     42  N   UNL     1     -35.565 -32.747  22.287  0.00  0.00    -0.186 N 
ATOM     43  H   UNL     1     -35.496 -33.204  23.175  0.00  0.00    +0.226 HD
ATOM     44  C   UNL     1     -36.498 -31.695  22.193  0.00  0.00    +0.193 A 
ATOM     45  C   UNL     1     -36.574 -31.038  20.883  0.00  0.00    +0.022 A 
ATOM     46  C   UNL     1     -37.523 -29.907  20.641  0.00  0.00    +0.045 C 
ATOM     47  O   UNL     1     -37.173 -31.414  23.186  0.00  0.00    -0.408 OA
ATOM     48  O   UNL     1     -33.959 -34.134  21.460  0.00  0.00    -0.384 OA
ATOM     49  C   UNL     1     -35.775 -31.476  19.883  0.00  0.00    +0.153 A 
ENDBRANCH  37  40
BRANCH  39  50
ATOM     50  C   UNL     1     -32.112 -30.680  17.033  0.00  0.00    +0.235 C 
BRANCH  50  51
ATOM     51  O   UNL     1     -31.581 -29.936  18.158  0.00  0.00    -0.273 OA
BRANCH  51  52
ATOM     52  P   UNL     1     -29.968 -29.679  18.358  0.00  0.00    +0.201 P 
ATOM     53  O   UNL     1     -29.826 -28.788  19.604  0.00  0.00    -0.554 OA
ATOM     54  O   UNL     1     -29.322 -31.072  18.535  0.00  0.00    -0.554 OA
ATOM     55  O   UNL     1     -29.509 -28.970  17.069  0.00  0.00    -0.554 OA
ENDBRANCH  51  52
ENDBRANCH  50  51
ENDBRANCH  39  50
ENDBRANCH  34  35
ENDBRANCH  31  34
ENDBRANCH  30  31
ENDBRANCH   1  30
TORSDOF 16
ENDMDL
MODEL 6
REMARK VINA RESULT:      -5.2      5.911     10.902
REMARK  Name = 1u1b_ligand
REMARK  17 active torsions:
REMARK  status: ('A' for Active; 'I' for Inactive)
REMARK    1  A    between atoms: PA_1  and  O5_4
REMARK    2  A    between atoms: PA_1  and  O3A_8
REMARK    3  A    between atoms: O5_4  and  C5_23
REMARK    4  A    between atoms: PB_5  and  O3A_8
REMARK    5  A    between atoms: PB_5  and  O3_38
REMARK    6  A    between atoms: PG_9  and  O3_30
REMARK    7  A    between atoms: N9A_13  and  C1_26
REMARK    8  A    between atoms: C6A_18  and  N6A_19
REMARK    9  A    between atoms: C5_23  and  C4_24
REMARK   10  A    between atoms: C2_27  and  O2_28
REMARK   11  A    between atoms: C3_29  and  O3_30
REMARK   12  A    between atoms: O5_31  and  C5_32
REMARK   13  A    between atoms: O5_31  and  PD_39
REMARK   14  A    between atoms: C5_32  and  C4_33
REMARK   15  A    between atoms: C1_35  and  N1T_43
REMARK   16  A    between atoms: C3_37  and  O3_38
REMARK   17  A    between atoms: C5T_50  and  CM5_51
REMARK                            x       y       z     vdW  Elec       q    Type
REMARK                         _______ _______ _______ _____ _____    ______ ____
ROOT
ATOM      1  P   UNL     1     -33.637 -33.259  14.675  0.00  0.00    +0.297 P 
ATOM      2  O   UNL     1     -34.692 -34.338  14.407  0.00  0.00    -0.613 OA
ATOM      3  O   UNL     1     -32.256 -33.491  14.053  0.00  0.00    -0.613 OA
ENDROOT
BRANCH   1   4
ATOM      4  O   UNL     1     -33.529 -33.057  16.252  0.00  0.00    -0.248 OA
BRANCH   4   5
ATOM      5  C   UNL     1     -34.684 -32.940  17.052  0.00  0.00    +0.243 C 
BRANCH   5   6
ATOM      6  C   UNL     1     -34.291 -32.568  18.446  0.00  0.00    +0.189 C 
ATOM      7  C   UNL     1     -33.165 -33.429  19.020  0.00  0.00    +0.219 C 
ATOM      8  C   UNL     1     -33.829 -34.132  20.214  0.00  0.00    +0.211 C 
ATOM      9  C   UNL     1     -34.933 -33.133  20.611  0.00  0.00    +0.301 C 
ATOM     10  O   UNL     1     -35.430 -32.728  19.355  0.00  0.00    -0.336 OA
BRANCH   9  11
ATOM     11  N   UNL     1     -36.045 -33.580  21.507  0.00  0.00    -0.192 N 
ATOM     12  C   UNL     1     -36.379 -34.909  21.715  0.00  0.00    +0.247 A 
ATOM     13  N   UNL     1     -37.390 -35.100  22.538  0.00  0.00    -0.296 NA
ATOM     14  C   UNL     1     -37.765 -33.817  22.909  0.00  0.00    +0.104 A 
ATOM     15  C   UNL     1     -38.795 -33.309  23.782  0.00  0.00    +0.130 A 
ATOM     16  N   UNL     1     -38.908 -31.944  23.942  0.00  0.00    -0.270 NA
ATOM     17  C   UNL     1     -38.037 -31.128  23.267  0.00  0.00    +0.153 A 
ATOM     18  N   UNL     1     -37.028 -31.495  22.419  0.00  0.00    -0.271 NA
ATOM     19  C   UNL     1     -36.941 -32.856  22.282  0.00  0.00    +0.161 A 
BRANCH  15  20
ATOM     20  N   UNL     1     -39.649 -34.087  24.440  0.00  0.00    -0.315 N 
ATOM     21  H   UNL     1     -40.512 -33.687  24.836  0.00  0.00    +0.182 HD
ATOM     22  H   UNL     1     -39.448 -35.091  24.556  0.00  0.00    +0.182 HD
ENDBRANCH  15  20
ENDBRANCH   9  11
BRANCH   8  23
ATOM     23  O   UNL     1     -32.945 -34.458  21.279  0.00  0.00    -0.383 OA
ATOM     24  H   UNL     1     -33.451 -34.654  22.060  0.00  0.00    +0.210 HD
ENDBRANCH   8  23
BRANCH   7  25
ATOM     25  O   UNL     1     -32.128 -32.539  19.444  0.00  0.00    -0.267 OA
BRANCH  25  26
ATOM     26  P   UNL     1     -30.993 -31.963  18.417  0.00  0.00    +0.201 P 
ATOM     27  O   UNL     1     -30.542 -33.107  17.492  0.00  0.00    -0.554 OA
ATOM     28  O   UNL     1     -29.851 -31.485  19.303  0.00  0.00    -0.554 OA
ATOM     29  O   UNL     1     -31.657 -30.840  17.621  0.00  0.00    -0.554 OA
ENDBRANCH  25  26
ENDBRANCH   7  25
ENDBRANCH   5   6
ENDBRANCH   4   5
ENDBRANCH   1   4
BRANCH   1  30
ATOM     30  O   UNL     1     -34.207 -31.850  14.225  0.00  0.00    -0.132 OA
BRANCH  30  31
ATOM     31  P   UNL     1     -33.542 -30.515  13.711  0.00  0.00    +0.297 P 
ATOM     32  O   UNL     1     -34.383 -29.384  14.164  0.00  0.00    -0.613 OA
ATOM     33  O   UNL     1     -33.251 -30.651  12.270  0.00  0.00    -0.613 OA
BRANCH  31  34
ATOM     34  O   UNL     1     -32.194 -30.411  14.616  0.00  0.00    -0.244 OA
BRANCH  34  35
ATOM     35  C   UNL     1     -30.967 -29.915  14.076  0.00  0.00    +0.197 C 
ATOM     36  C   UNL     1     -31.014 -28.399  13.990  0.00  0.00    +0.106 C 
ATOM     37  C   UNL     1     -30.451 -27.966  15.337  0.00  0.00    +0.272 C 
ATOM     38  O   UNL     1     -29.480 -28.934  15.677  0.00  0.00    -0.339 OA
ATOM     39  C   UNL     1     -29.827 -30.205  15.062  0.00  0.00    +0.186 C 
BRANCH  37  40
ATOM     40  N   UNL     1     -29.815 -26.606  15.284  0.00  0.00    -0.174 N 
ATOM     41  C   UNL     1     -30.274 -25.640  16.212  0.00  0.00    +0.327 A 
ATOM     42  N   UNL     1     -29.652 -24.397  16.114  0.00  0.00    -0.186 N 
ATOM     43  H   UNL     1     -29.956 -23.694  16.757  0.00  0.00    +0.226 HD
ATOM     44  C   UNL     1     -28.640 -24.023  15.207  0.00  0.00    +0.193 A 
ATOM     45  C   UNL     1     -28.208 -25.075  14.280  0.00  0.00    +0.022 A 
ATOM     46  C   UNL     1     -27.142 -24.816  13.262  0.00  0.00    +0.045 C 
ATOM     47  O   UNL     1     -28.207 -22.870  15.249  0.00  0.00    -0.408 OA
ATOM     48  O   UNL     1     -31.139 -25.862  17.027  0.00  0.00    -0.384 OA
ATOM     49  C   UNL     1     -28.795 -26.292  14.349  0.00  0.00    +0.153 A 
ENDBRANCH  37  40
BRANCH  39  50
ATOM     50  C   UNL     1     -28.603 -30.827  14.409  0.00  0.00    +0.235 C 
BRANCH  50  51
ATOM     51  O   UNL     1     -28.278 -32.095  15.028  0.00  0.00    -0.273 OA
BRANCH  51  52
ATOM     52  P   UNL     1     -27.087 -32.242  16.156  0.00  0.00    +0.201 P 
ATOM     53  O   UNL     1     -25.756 -32.173  15.386  0.00  0.00    -0.554 OA
ATOM     54  O   UNL     1     -27.274 -31.069  17.144  0.00  0.00    -0.554 OA
ATOM     55  O   UNL     1     -27.319 -33.617  16.812  0.00  0.00    -0.554 OA
ENDBRANCH  51  52
ENDBRANCH  50  51
ENDBRANCH  39  50
ENDBRANCH  34  35
ENDBRANCH  31  34
ENDBRANCH  30  31
ENDBRANCH   1  30
TORSDOF 16
ENDMDL
MODEL 7
REMARK VINA RESULT:      -5.1      5.733      8.556
REMARK  Name = 1u1b_ligand
REMARK  17 active torsions:
REMARK  status: ('A' for Active; 'I' for Inactive)
REMARK    1  A    between atoms: PA_1  and  O5_4
REMARK    2  A    between atoms: PA_1  and  O3A_8
REMARK    3  A    between atoms: O5_4  and  C5_23
REMARK    4  A    between atoms: PB_5  and  O3A_8
REMARK    5  A    between atoms: PB_5  and  O3_38
REMARK    6  A    between atoms: PG_9  and  O3_30
REMARK    7  A    between atoms: N9A_13  and  C1_26
REMARK    8  A    between atoms: C6A_18  and  N6A_19
REMARK    9  A    between atoms: C5_23  and  C4_24
REMARK   10  A    between atoms: C2_27  and  O2_28
REMARK   11  A    between atoms: C3_29  and  O3_30
REMARK   12  A    between atoms: O5_31  and  C5_32
REMARK   13  A    between atoms: O5_31  and  PD_39
REMARK   14  A    between atoms: C5_32  and  C4_33
REMARK   15  A    between atoms: C1_35  and  N1T_43
REMARK   16  A    between atoms: C3_37  and  O3_38
REMARK   17  A    between atoms: C5T_50  and  CM5_51
REMARK                            x       y       z     vdW  Elec       q    Type
REMARK                         _______ _______ _______ _____ _____    ______ ____
ROOT
ATOM      1  P   UNL     1     -28.426 -29.842  19.028  0.00  0.00    +0.297 P 
ATOM      2  O   UNL     1     -26.912 -29.664  19.189  0.00  0.00    -0.613 OA
ATOM      3  O   UNL     1     -29.240 -29.925  20.323  0.00  0.00    -0.613 OA
ENDROOT
BRANCH   1   4
ATOM      4  O   UNL     1     -28.678 -31.120  18.110  0.00  0.00    -0.248 OA
BRANCH   4   5
ATOM      5  C   UNL     1     -28.662 -32.421  18.653  0.00  0.00    +0.243 C 
BRANCH   5   6
ATOM      6  C   UNL     1     -28.723 -33.425  17.547  0.00  0.00    +0.189 C 
ATOM      7  C   UNL     1     -28.575 -32.816  16.152  0.00  0.00    +0.219 C 
ATOM      8  C   UNL     1     -29.921 -33.133  15.481  0.00  0.00    +0.211 C 
ATOM      9  C   UNL     1     -30.364 -34.410  16.221  0.00  0.00    +0.301 C 
ATOM     10  O   UNL     1     -30.018 -34.114  17.556  0.00  0.00    -0.336 OA
BRANCH   9  11
ATOM     11  N   UNL     1     -31.787 -34.862  16.126  0.00  0.00    -0.192 N 
ATOM     12  C   UNL     1     -32.654 -34.909  17.207  0.00  0.00    +0.247 A 
ATOM     13  N   UNL     1     -33.867 -35.336  16.921  0.00  0.00    -0.296 NA
ATOM     14  C   UNL     1     -33.817 -35.597  15.560  0.00  0.00    +0.104 A 
ATOM     15  C   UNL     1     -34.793 -36.085  14.616  0.00  0.00    +0.130 A 
ATOM     16  N   UNL     1     -34.418 -36.236  13.299  0.00  0.00    -0.270 NA
ATOM     17  C   UNL     1     -33.134 -35.916  12.939  0.00  0.00    +0.153 A 
ATOM     18  N   UNL     1     -32.129 -35.448  13.741  0.00  0.00    -0.271 NA
ATOM     19  C   UNL     1     -32.534 -35.307  15.043  0.00  0.00    +0.161 A 
BRANCH  15  20
ATOM     20  N   UNL     1     -36.040 -36.403  14.950  0.00  0.00    -0.315 N 
ATOM     21  H   UNL     1     -36.353 -37.384  14.904  0.00  0.00    +0.182 HD
ATOM     22  H   UNL     1     -36.696 -35.669  15.255  0.00  0.00    +0.182 HD
ENDBRANCH  15  20
ENDBRANCH   9  11
BRANCH   8  23
ATOM     23  O   UNL     1     -29.862 -33.284  14.069  0.00  0.00    -0.383 OA
ATOM     24  H   UNL     1     -30.153 -34.157  13.832  0.00  0.00    +0.210 HD
ENDBRANCH   8  23
BRANCH   7  25
ATOM     25  O   UNL     1     -27.494 -33.495  15.507  0.00  0.00    -0.267 OA
BRANCH  25  26
ATOM     26  P   UNL     1     -26.073 -32.759  15.172  0.00  0.00    +0.201 P 
ATOM     27  O   UNL     1     -25.004 -33.841  14.931  0.00  0.00    -0.554 OA
ATOM     28  O   UNL     1     -25.749 -31.926  16.405  0.00  0.00    -0.554 OA
ATOM     29  O   UNL     1     -26.302 -31.922  13.915  0.00  0.00    -0.554 OA
ENDBRANCH  25  26
ENDBRANCH   7  25
ENDBRANCH   5   6
ENDBRANCH   4   5
ENDBRANCH   1   4
BRANCH   1  30
ATOM     30  O   UNL     1     -28.991 -28.686  18.102  0.00  0.00    -0.132 OA
BRANCH  30  31
ATOM     31  P   UNL     1     -30.402 -28.389  17.462  0.00  0.00    +0.297 P 
ATOM     32  O   UNL     1     -30.542 -26.921  17.331  0.00  0.00    -0.613 OA
ATOM     33  O   UNL     1     -31.432 -29.136  18.210  0.00  0.00    -0.613 OA
BRANCH  31  34
ATOM     34  O   UNL     1     -30.226 -28.922  15.935  0.00  0.00    -0.244 OA
BRANCH  34  35
ATOM     35  C   UNL     1     -30.666 -28.149  14.817  0.00  0.00    +0.197 C 
ATOM     36  C   UNL     1     -29.816 -28.470  13.599  0.00  0.00    +0.106 C 
ATOM     37  C   UNL     1     -30.577 -29.616  12.947  0.00  0.00    +0.272 C 
ATOM     38  O   UNL     1     -31.944 -29.357  13.191  0.00  0.00    -0.339 OA
ATOM     39  C   UNL     1     -32.080 -28.592  14.420  0.00  0.00    +0.186 C 
BRANCH  37  40
ATOM     40  N   UNL     1     -30.333 -29.700  11.467  0.00  0.00    -0.174 N 
ATOM     41  C   UNL     1     -30.234 -30.994  10.900  0.00  0.00    +0.327 A 
ATOM     42  N   UNL     1     -30.004 -31.010   9.526  0.00  0.00    -0.186 N 
ATOM     43  H   UNL     1     -29.929 -31.911   9.097  0.00  0.00    +0.226 HD
ATOM     44  C   UNL     1     -29.865 -29.896   8.674  0.00  0.00    +0.193 A 
ATOM     45  C   UNL     1     -29.986 -28.588   9.327  0.00  0.00    +0.022 A 
ATOM     46  C   UNL     1     -29.858 -27.320   8.544  0.00  0.00    +0.045 C 
ATOM     47  O   UNL     1     -29.650 -30.092   7.476  0.00  0.00    -0.408 OA
ATOM     48  O   UNL     1     -30.336 -32.010  11.546  0.00  0.00    -0.384 OA
ATOM     49  C   UNL     1     -30.207 -28.539  10.662  0.00  0.00    +0.153 A 
ENDBRANCH  37  40
BRANCH  39  50
ATOM     50  C   UNL     1     -33.045 -27.434  14.217  0.00  0.00    +0.235 C 
BRANCH  50  51
ATOM     51  O   UNL     1     -32.381 -26.166  14.440  0.00  0.00    -0.273 OA
BRANCH  51  52
ATOM     52  P   UNL     1     -33.168 -24.860  15.059  0.00  0.00    +0.201 P 
ATOM     53  O   UNL     1     -34.395 -25.412  15.806  0.00  0.00    -0.554 OA
ATOM     54  O   UNL     1     -32.164 -24.147  15.994  0.00  0.00    -0.554 OA
ATOM     55  O   UNL     1     -33.555 -24.004  13.837  0.00  0.00    -0.554 OA
ENDBRANCH  51  52
ENDBRANCH  50  51
ENDBRANCH  39  50
ENDBRANCH  34  35
ENDBRANCH  31  34
ENDBRANCH  30  31
ENDBRANCH   1  30
TORSDOF 16
ENDMDL
MODEL 8
REMARK VINA RESULT:      -5.1      7.213     14.167
REMARK  Name = 1u1b_ligand
REMARK  17 active torsions:
REMARK  status: ('A' for Active; 'I' for Inactive)
REMARK    1  A    between atoms: PA_1  and  O5_4
REMARK    2  A    between atoms: PA_1  and  O3A_8
REMARK    3  A    between atoms: O5_4  and  C5_23
REMARK    4  A    between atoms: PB_5  and  O3A_8
REMARK    5  A    between atoms: PB_5  and  O3_38
REMARK    6  A    between atoms: PG_9  and  O3_30
REMARK    7  A    between atoms: N9A_13  and  C1_26
REMARK    8  A    between atoms: C6A_18  and  N6A_19
REMARK    9  A    between atoms: C5_23  and  C4_24
REMARK   10  A    between atoms: C2_27  and  O2_28
REMARK   11  A    between atoms: C3_29  and  O3_30
REMARK   12  A    between atoms: O5_31  and  C5_32
REMARK   13  A    between atoms: O5_31  and  PD_39
REMARK   14  A    between atoms: C5_32  and  C4_33
REMARK   15  A    between atoms: C1_35  and  N1T_43
REMARK   16  A    between atoms: C3_37  and  O3_38
REMARK   17  A    between atoms: C5T_50  and  CM5_51
REMARK                            x       y       z     vdW  Elec       q    Type
REMARK                         _______ _______ _______ _____ _____    ______ ____
ROOT
ATOM      1  P   UNL     1     -33.877 -35.463  20.887  0.00  0.00    +0.297 P 
ATOM      2  O   UNL     1     -32.832 -36.455  21.412  0.00  0.00    -0.613 OA
ATOM      3  O   UNL     1     -34.025 -34.156  21.672  0.00  0.00    -0.613 OA
ENDROOT
BRANCH   1   4
ATOM      4  O   UNL     1     -35.270 -36.227  20.777  0.00  0.00    -0.248 OA
BRANCH   4   5
ATOM      5  C   UNL     1     -36.452 -35.541  20.427  0.00  0.00    +0.243 C 
BRANCH   5   6
ATOM      6  C   UNL     1     -37.334 -35.420  21.629  0.00  0.00    +0.189 C 
ATOM      7  C   UNL     1     -38.825 -35.355  21.295  0.00  0.00    +0.219 C 
ATOM      8  C   UNL     1     -39.241 -33.965  21.800  0.00  0.00    +0.211 C 
ATOM      9  C   UNL     1     -38.225 -33.707  22.929  0.00  0.00    +0.301 C 
ATOM     10  O   UNL     1     -37.026 -34.189  22.363  0.00  0.00    -0.336 OA
BRANCH   9  11
ATOM     11  N   UNL     1     -38.045 -32.319  23.458  0.00  0.00    -0.192 N 
ATOM     12  C   UNL     1     -38.173 -31.981  24.796  0.00  0.00    +0.247 A 
ATOM     13  N   UNL     1     -37.979 -30.706  25.063  0.00  0.00    -0.296 NA
ATOM     14  C   UNL     1     -37.704 -30.144  23.825  0.00  0.00    +0.104 A 
ATOM     15  C   UNL     1     -37.400 -28.798  23.403  0.00  0.00    +0.130 A 
ATOM     16  N   UNL     1     -37.169 -28.565  22.064  0.00  0.00    -0.270 NA
ATOM     17  C   UNL     1     -37.236 -29.619  21.190  0.00  0.00    +0.153 A 
ATOM     18  N   UNL     1     -37.513 -30.929  21.474  0.00  0.00    -0.271 NA
ATOM     19  C   UNL     1     -37.737 -31.128  22.812  0.00  0.00    +0.161 A 
BRANCH  15  20
ATOM     20  N   UNL     1     -37.335 -27.765  24.237  0.00  0.00    -0.315 N 
ATOM     21  H   UNL     1     -36.625 -27.031  24.096  0.00  0.00    +0.182 HD
ATOM     22  H   UNL     1     -37.993 -27.697  25.027  0.00  0.00    +0.182 HD
ENDBRANCH  15  20
ENDBRANCH   9  11
BRANCH   8  23
ATOM     23  O   UNL     1     -40.596 -33.865  22.219  0.00  0.00    -0.383 OA
ATOM     24  H   UNL     1     -41.108 -33.450  21.534  0.00  0.00    +0.210 HD
ENDBRANCH   8  23
BRANCH   7  25
ATOM     25  O   UNL     1     -39.468 -36.397  22.035  0.00  0.00    -0.267 OA
BRANCH  25  26
ATOM     26  P   UNL     1     -40.131 -37.705  21.310  0.00  0.00    +0.201 P 
ATOM     27  O   UNL     1     -39.959 -37.562  19.787  0.00  0.00    -0.554 OA
ATOM     28  O   UNL     1     -41.601 -37.684  21.706  0.00  0.00    -0.554 OA
ATOM     29  O   UNL     1     -39.376 -38.924  21.838  0.00  0.00    -0.554 OA
ENDBRANCH  25  26
ENDBRANCH   7  25
ENDBRANCH   5   6
ENDBRANCH   4   5
ENDBRANCH   1   4
BRANCH   1  30
ATOM     30  O   UNL     1     -33.578 -35.152  19.361  0.00  0.00    -0.132 OA
BRANCH  30  31
ATOM     31  P   UNL     1     -33.193 -33.843  18.567  0.00  0.00    +0.297 P 
ATOM     32  O   UNL     1     -32.357 -33.004  19.454  0.00  0.00    -0.613 OA
ATOM     33  O   UNL     1     -34.418 -33.260  17.986  0.00  0.00    -0.613 OA
BRANCH  31  34
ATOM     34  O   UNL     1     -32.163 -34.397  17.436  0.00  0.00    -0.244 OA
BRANCH  34  35
ATOM     35  C   UNL     1     -30.934 -33.726  17.151  0.00  0.00    +0.197 C 
ATOM     36  C   UNL     1     -29.972 -34.680  16.463  0.00  0.00    +0.106 C 
ATOM     37  C   UNL     1     -30.284 -34.471  14.988  0.00  0.00    +0.272 C 
ATOM     38  O   UNL     1     -30.628 -33.107  14.858  0.00  0.00    -0.339 OA
ATOM     39  C   UNL     1     -31.187 -32.627  16.111  0.00  0.00    +0.186 C 
BRANCH  37  40
ATOM     40  N   UNL     1     -29.112 -34.784  14.102  0.00  0.00    -0.174 N 
ATOM     41  C   UNL     1     -29.394 -35.196  12.777  0.00  0.00    +0.327 A 
ATOM     42  N   UNL     1     -28.270 -35.477  12.003  0.00  0.00    -0.186 N 
ATOM     43  H   UNL     1     -28.438 -35.771  11.062  0.00  0.00    +0.226 HD
ATOM     44  C   UNL     1     -26.921 -35.393  12.403  0.00  0.00    +0.193 A 
ATOM     45  C   UNL     1     -26.702 -34.955  13.785  0.00  0.00    +0.022 A 
ATOM     46  C   UNL     1     -25.320 -34.822  14.343  0.00  0.00    +0.045 C 
ATOM     47  O   UNL     1     -26.045 -35.694  11.589  0.00  0.00    -0.408 OA
ATOM     48  O   UNL     1     -30.516 -35.302  12.340  0.00  0.00    -0.384 OA
ATOM     49  C   UNL     1     -27.774 -34.676  14.563  0.00  0.00    +0.153 A 
ENDBRANCH  37  40
BRANCH  39  50
ATOM     50  C   UNL     1     -30.574 -31.286  16.483  0.00  0.00    +0.235 C 
BRANCH  50  51
ATOM     51  O   UNL     1     -29.796 -31.396  17.700  0.00  0.00    -0.273 OA
BRANCH  51  52
ATOM     52  P   UNL     1     -29.133 -30.083  18.441  0.00  0.00    +0.201 P 
ATOM     53  O   UNL     1     -29.829 -29.964  19.808  0.00  0.00    -0.554 OA
ATOM     54  O   UNL     1     -27.618 -30.366  18.557  0.00  0.00    -0.554 OA
ATOM     55  O   UNL     1     -29.448 -28.894  17.512  0.00  0.00    -0.554 OA
ENDBRANCH  51  52
ENDBRANCH  50  51
ENDBRANCH  39  50
ENDBRANCH  34  35
ENDBRANCH  31  34
ENDBRANCH  30  31
ENDBRANCH   1  30
TORSDOF 16
ENDMDL
MODEL 9
REMARK VINA RESULT:      -5.0      4.836      9.662
REMARK  Name = 1u1b_ligand
REMARK  17 active torsions:
REMARK  status: ('A' for Active; 'I' for Inactive)
REMARK    1  A    between atoms: PA_1  and  O5_4
REMARK    2  A    between atoms: PA_1  and  O3A_8
REMARK    3  A    between atoms: O5_4  and  C5_23
REMARK    4  A    between atoms: PB_5  and  O3A_8
REMARK    5  A    between atoms: PB_5  and  O3_38
REMARK    6  A    between atoms: PG_9  and  O3_30
REMARK    7  A    between atoms: N9A_13  and  C1_26
REMARK    8  A    between atoms: C6A_18  and  N6A_19
REMARK    9  A    between atoms: C5_23  and  C4_24
REMARK   10  A    between atoms: C2_27  and  O2_28
REMARK   11  A    between atoms: C3_29  and  O3_30
REMARK   12  A    between atoms: O5_31  and  C5_32
REMARK   13  A    between atoms: O5_31  and  PD_39
REMARK   14  A    between atoms: C5_32  and  C4_33
REMARK   15  A    between atoms: C1_35  and  N1T_43
REMARK   16  A    between atoms: C3_37  and  O3_38
REMARK   17  A    between atoms: C5T_50  and  CM5_51
REMARK                            x       y       z     vdW  Elec       q    Type
REMARK                         _______ _______ _______ _____ _____    ______ ____
ROOT
ATOM      1  P   UNL     1     -31.314 -34.416  13.534  0.00  0.00    +0.297 P 
ATOM      2  O   UNL     1     -32.829 -34.343  13.758  0.00  0.00    -0.613 OA
ATOM      3  O   UNL     1     -30.709 -35.820  13.436  0.00  0.00    -0.613 OA
ENDROOT
BRANCH   1   4
ATOM      4  O   UNL     1     -30.605 -33.565  14.680  0.00  0.00    -0.248 OA
BRANCH   4   5
ATOM      5  C   UNL     1     -31.009 -32.244  14.962  0.00  0.00    +0.243 C 
BRANCH   5   6
ATOM      6  C   UNL     1     -29.802 -31.385  15.169  0.00  0.00    +0.189 C 
ATOM      7  C   UNL     1     -29.016 -31.107  13.887  0.00  0.00    +0.219 C 
ATOM      8  C   UNL     1     -27.652 -31.759  14.158  0.00  0.00    +0.211 C 
ATOM      9  C   UNL     1     -27.555 -31.694  15.695  0.00  0.00    +0.301 C 
ATOM     10  O   UNL     1     -28.865 -32.039  16.088  0.00  0.00    -0.336 OA
BRANCH   9  11
ATOM     11  N   UNL     1     -26.544 -32.536  16.407  0.00  0.00    -0.192 N 
ATOM     12  C   UNL     1     -26.847 -33.365  17.476  0.00  0.00    +0.247 A 
ATOM     13  N   UNL     1     -25.819 -34.024  17.969  0.00  0.00    -0.296 NA
ATOM     14  C   UNL     1     -24.751 -33.614  17.185  0.00  0.00    +0.104 A 
ATOM     15  C   UNL     1     -23.348 -33.946  17.186  0.00  0.00    +0.130 A 
ATOM     16  N   UNL     1     -22.530 -33.350  16.250  0.00  0.00    -0.270 NA
ATOM     17  C   UNL     1     -23.083 -32.468  15.357  0.00  0.00    +0.153 A 
ATOM     18  N   UNL     1     -24.392 -32.080  15.263  0.00  0.00    -0.271 NA
ATOM     19  C   UNL     1     -25.179 -32.690  16.205  0.00  0.00    +0.161 A 
BRANCH  15  20
ATOM     20  N   UNL     1     -22.795 -34.796  18.046  0.00  0.00    -0.315 N 
ATOM     21  H   UNL     1     -22.139 -35.517  17.711  0.00  0.00    +0.182 HD
ATOM     22  H   UNL     1     -23.024 -34.736  19.049  0.00  0.00    +0.182 HD
ENDBRANCH  15  20
ENDBRANCH   9  11
BRANCH   8  23
ATOM     23  O   UNL     1     -26.556 -31.147  13.491  0.00  0.00    -0.383 OA
ATOM     24  H   UNL     1     -26.633 -31.296  12.555  0.00  0.00    +0.210 HD
ENDBRANCH   8  23
BRANCH   7  25
ATOM     25  O   UNL     1     -28.903 -29.686  13.762  0.00  0.00    -0.267 OA
BRANCH  25  26
ATOM     26  P   UNL     1     -30.035 -28.781  13.005  0.00  0.00    +0.201 P 
ATOM     27  O   UNL     1     -30.997 -28.210  14.063  0.00  0.00    -0.554 OA
ATOM     28  O   UNL     1     -30.754 -29.738  12.063  0.00  0.00    -0.554 OA
ATOM     29  O   UNL     1     -29.287 -27.663  12.281  0.00  0.00    -0.554 OA
ENDBRANCH  25  26
ENDBRANCH   7  25
ENDBRANCH   5   6
ENDBRANCH   4   5
ENDBRANCH   1   4
BRANCH   1  30
ATOM     30  O   UNL     1     -30.937 -33.568  12.248  0.00  0.00    -0.132 OA
BRANCH  30  31
ATOM     31  P   UNL     1     -30.610 -33.941  10.750  0.00  0.00    +0.297 P 
ATOM     32  O   UNL     1     -30.320 -32.685  10.023  0.00  0.00    -0.613 OA
ATOM     33  O   UNL     1     -31.671 -34.830  10.238  0.00  0.00    -0.613 OA
BRANCH  31  34
ATOM     34  O   UNL     1     -29.169 -34.687  10.870  0.00  0.00    -0.244 OA
BRANCH  34  35
ATOM     35  C   UNL     1     -27.947 -33.950  10.919  0.00  0.00    +0.197 C 
ATOM     36  C   UNL     1     -26.974 -34.626  11.871  0.00  0.00    +0.106 C 
ATOM     37  C   UNL     1     -26.215 -35.580  10.959  0.00  0.00    +0.272 C 
ATOM     38  O   UNL     1     -26.126 -34.927   9.709  0.00  0.00    -0.339 OA
ATOM     39  C   UNL     1     -27.255 -34.024   9.552  0.00  0.00    +0.186 C 
BRANCH  37  40
ATOM     40  N   UNL     1     -24.837 -35.890  11.469  0.00  0.00    -0.174 N 
ATOM     41  C   UNL     1     -24.557 -37.238  11.801  0.00  0.00    +0.327 A 
ATOM     42  N   UNL     1     -23.266 -37.465  12.272  0.00  0.00    -0.186 N 
ATOM     43  H   UNL     1     -23.040 -38.409  12.515  0.00  0.00    +0.226 HD
ATOM     44  C   UNL     1     -22.244 -36.511  12.444  0.00  0.00    +0.193 A 
ATOM     45  C   UNL     1     -22.600 -35.136  12.074  0.00  0.00    +0.022 A 
ATOM     46  C   UNL     1     -21.612 -34.021  12.207  0.00  0.00    +0.045 C 
ATOM     47  O   UNL     1     -21.156 -36.884  12.888  0.00  0.00    -0.408 OA
ATOM     48  O   UNL     1     -25.367 -38.129  11.692  0.00  0.00    -0.384 OA
ATOM     49  C   UNL     1     -23.848 -34.883  11.615  0.00  0.00    +0.153 A 
ENDBRANCH  37  40
BRANCH  39  50
ATOM     50  C   UNL     1     -26.783 -32.674   9.036  0.00  0.00    +0.235 C 
BRANCH  50  51
ATOM     51  O   UNL     1     -27.041 -31.632  10.009  0.00  0.00    -0.273 OA
BRANCH  51  52
ATOM     52  P   UNL     1     -26.381 -30.130   9.883  0.00  0.00    +0.201 P 
ATOM     53  O   UNL     1     -25.364 -30.009  11.031  0.00  0.00    -0.554 OA
ATOM     54  O   UNL     1     -25.725 -30.057   8.485  0.00  0.00    -0.554 OA
ATOM     55  O   UNL     1     -27.564 -29.154  10.037  0.00  0.00    -0.554 OA
ENDBRANCH  51  52
ENDBRANCH  50  51
ENDBRANCH  39  50
ENDBRANCH  34  35
ENDBRANCH  31  34
ENDBRANCH  30  31
ENDBRANCH   1  30
TORSDOF 16
ENDMDL
