MODEL 1
REMARK VINA RESULT:      -7.4      0.000      0.000
REMARK  Name = 1u1b_ligand
REMARK  17 active torsions:
REMARK  status: ('A' for Active; 'I' for Inactive)
REMARK    1  A    between atoms: PA_1  and  O5_4
REMARK    2  A    between atoms: PA_1  and  O3A_8
REMARK    3  A    between atoms: O5_4  and  C5_23
REMARK    4  A    between atoms: PB_5  and  O3A_8
REMARK    5  A    between atoms: PB_5  and  O3_38
REMARK    6  A    between atoms: PG_9  and  O3_30
REMARK    7  A    between atoms: N9A_13  and  C1_26
REMARK    8  A    between atoms: C6A_18  and  N6A_19
REMARK    9  A    between atoms: C5_23  and  C4_24
REMARK   10  A    between atoms: C2_27  and  O2_28
REMARK   11  A    between atoms: C3_29  and  O3_30
REMARK   12  A    between atoms: O5_31  and  C5_32
REMARK   13  A    between atoms: O5_31  and  PD_39
REMARK   14  A    between atoms: C5_32  and  C4_33
REMARK   15  A    between atoms: C1_35  and  N1T_43
REMARK   16  A    between atoms: C3_37  and  O3_38
REMARK   17  A    between atoms: C5T_50  and  CM5_51
REMARK                            x       y       z     vdW  Elec       q    Type
REMARK                         _______ _______ _______ _____ _____    ______ ____
ROOT
ATOM      1  P   UNL     1     -29.250 -30.364  18.809  0.00  0.00    +0.297 P 
ATOM      2  O   UNL     1     -28.673 -30.391  20.229  0.00  0.00    -0.613 OA
ATOM      3  O   UNL     1     -29.328 -28.992  18.134  0.00  0.00    -0.613 OA
ENDROOT
BRANCH   1   4
ATOM      4  O   UNL     1     -30.680 -31.068  18.845  0.00  0.00    -0.248 OA
BRANCH   4   5
ATOM      5  C   UNL     1     -31.268 -31.583  17.671  0.00  0.00    +0.243 C 
BRANCH   5   6
ATOM      6  C   UNL     1     -31.740 -32.981  17.921  0.00  0.00    +0.189 C 
ATOM      7  C   UNL     1     -32.905 -33.406  17.026  0.00  0.00    +0.219 C 
ATOM      8  C   UNL     1     -34.044 -33.661  18.025  0.00  0.00    +0.211 C 
ATOM      9  C   UNL     1     -33.279 -34.042  19.307  0.00  0.00    +0.301 C 
ATOM     10  O   UNL     1     -32.214 -33.118  19.301  0.00  0.00    -0.336 OA
BRANCH   9  11
ATOM     11  N   UNL     1     -33.991 -34.029  20.623  0.00  0.00    -0.192 N 
ATOM     12  C   UNL     1     -33.679 -33.161  21.658  0.00  0.00    +0.247 A 
ATOM     13  N   UNL     1     -34.419 -33.306  22.738  0.00  0.00    -0.296 NA
ATOM     14  C   UNL     1     -35.287 -34.338  22.414  0.00  0.00    +0.104 A 
ATOM     15  C   UNL     1     -36.348 -34.994  23.138  0.00  0.00    +0.130 A 
ATOM     16  N   UNL     1     -37.039 -36.012  22.515  0.00  0.00    -0.270 NA
ATOM     17  C   UNL     1     -36.689 -36.359  21.236  0.00  0.00    +0.153 A 
ATOM     18  N   UNL     1     -35.706 -35.811  20.456  0.00  0.00    -0.271 NA
ATOM     19  C   UNL     1     -35.040 -34.802  21.102  0.00  0.00    +0.161 A 
BRANCH  15  20
ATOM     20  N   UNL     1     -36.697 -34.671  24.380  0.00  0.00    -0.315 N 
ATOM     21  H   UNL     1     -36.286 -33.841  24.832  0.00  0.00    +0.182 HD
ATOM     22  H   UNL     1     -37.377 -35.252  24.892  0.00  0.00    +0.182 HD
ENDBRANCH  15  20
ENDBRANCH   9  11
BRANCH   8  23
ATOM     23  O   UNL     1     -34.990 -34.639  17.613  0.00  0.00    -0.383 OA
ATOM     24  H   UNL     1     -34.638 -35.128  16.878  0.00  0.00    +0.210 HD
ENDBRANCH   8  23
BRANCH   7  25
ATOM     25  O   UNL     1     -32.509 -34.611  16.363  0.00  0.00    -0.267 OA
BRANCH  25  26
ATOM     26  P   UNL     1     -33.257 -35.154  15.014  0.00  0.00    +0.201 P 
ATOM     27  O   UNL     1     -33.875 -36.531  15.316  0.00  0.00    -0.554 OA
ATOM     28  O   UNL     1     -32.162 -35.258  13.960  0.00  0.00    -0.554 OA
ATOM     29  O   UNL     1     -34.336 -34.129  14.672  0.00  0.00    -0.554 OA
ENDBRANCH  25  26
ENDBRANCH   7  25
ENDBRANCH   5   6
ENDBRANCH   4   5
ENDBRANCH   1   4
BRANCH   1  30
ATOM     30  O   UNL     1     -28.437 -31.375  17.897  0.00  0.00    -0.132 OA
BRANCH  30  31
ATOM     31  P   UNL     1     -27.395 -32.521  18.197  0.00  0.00    +0.297 P 
ATOM     32  O   UNL     1     -27.985 -33.416  19.217  0.00  0.00    -0.613 OA
ATOM     33  O   UNL     1     -26.078 -31.911  18.464  0.00  0.00    -0.613 OA
BRANCH  31  34
ATOM     34  O   UNL     1     -27.414 -33.395  16.824  0.00  0.00    -0.244 OA
BRANCH  34  35
ATOM     35  C   UNL     1     -26.400 -34.360  16.537  0.00  0.00    +0.197 C 
ATOM     36  C   UNL     1     -27.009 -35.552  15.819  0.00  0.00    +0.106 C 
ATOM     37  C   UNL     1     -26.881 -35.165  14.352  0.00  0.00    +0.272 C 
ATOM     38  O   UNL     1     -25.683 -34.424  14.253  0.00  0.00    -0.339 OA
ATOM     39  C   UNL     1     -25.413 -33.769  15.523  0.00  0.00    +0.186 C 
BRANCH  37  40
ATOM     40  N   UNL     1     -26.813 -36.361  13.445  0.00  0.00    -0.174 N 
ATOM     41  C   UNL     1     -28.039 -36.860  12.939  0.00  0.00    +0.327 A 
ATOM     42  N   UNL     1     -27.915 -37.972  12.108  0.00  0.00    -0.186 N 
ATOM     43  H   UNL     1     -28.765 -38.346  11.736  0.00  0.00    +0.226 HD
ATOM     44  C   UNL     1     -26.724 -38.626  11.736  0.00  0.00    +0.193 A 
ATOM     45  C   UNL     1     -25.493 -38.053  12.291  0.00  0.00    +0.022 A 
ATOM     46  C   UNL     1     -24.156 -38.648  11.980  0.00  0.00    +0.045 C 
ATOM     47  O   UNL     1     -26.798 -39.611  10.998  0.00  0.00    -0.408 OA
ATOM     48  O   UNL     1     -29.113 -36.371  13.202  0.00  0.00    -0.384 OA
ATOM     49  C   UNL     1     -25.580 -36.974  13.104  0.00  0.00    +0.153 A 
ENDBRANCH  37  40
BRANCH  39  50
ATOM     50  C   UNL     1     -23.955 -33.956  15.913  0.00  0.00    +0.235 C 
BRANCH  50  51
ATOM     51  O   UNL     1     -23.845 -34.447  17.272  0.00  0.00    -0.273 OA
BRANCH  51  52
ATOM     52  P   UNL     1     -22.556 -34.093  18.232  0.00  0.00    +0.201 P 
ATOM     53  O   UNL     1     -23.137 -33.513  19.534  0.00  0.00    -0.554 OA
ATOM     54  O   UNL     1     -21.796 -35.421  18.450  0.00  0.00    -0.554 OA
ATOM     55  O   UNL     1     -21.734 -33.059  17.439  0.00  0.00    -0.554 OA
ENDBRANCH  51  52
ENDBRANCH  50  51
ENDBRANCH  39  50
ENDBRANCH  34  35
ENDBRANCH  31  34
ENDBRANCH  30  31
ENDBRANCH   1  30
TORSDOF 16
ENDMDL
MODEL 2
REMARK VINA RESULT:      -6.9      6.235     11.135
REMARK  Name = 1u1b_ligand
REMARK  17 active torsions:
REMARK  status: ('A' for Active; 'I' for Inactive)
REMARK    1  A    between atoms: PA_1  and  O5_4
REMARK    2  A    between atoms: PA_1  and  O3A_8
REMARK    3  A    between atoms: O5_4  and  C5_23
REMARK    4  A    between atoms: PB_5  and  O3A_8
REMARK    5  A    between atoms: PB_5  and  O3_38
REMARK    6  A    between atoms: PG_9  and  O3_30
REMARK    7  A    between atoms: N9A_13  and  C1_26
REMARK    8  A    between atoms: C6A_18  and  N6A_19
REMARK    9  A    between atoms: C5_23  and  C4_24
REMARK   10  A    between atoms: C2_27  and  O2_28
REMARK   11  A    between atoms: C3_29  and  O3_30
REMARK   12  A    between atoms: O5_31  and  C5_32
REMARK   13  A    between atoms: O5_31  and  PD_39
REMARK   14  A    between atoms: C5_32  and  C4_33
REMARK   15  A    between atoms: C1_35  and  N1T_43
REMARK   16  A    between atoms: C3_37  and  O3_38
REMARK   17  A    between atoms: C5T_50  and  CM5_51
REMARK                            x       y       z     vdW  Elec       q    Type
REMARK                         _______ _______ _______ _____ _____    ______ ____
ROOT
ATOM      1  P   UNL     1     -30.094 -32.599  13.946  0.00  0.00    +0.297 P 
ATOM      2  O   UNL     1     -31.398 -32.063  14.548  0.00  0.00    -0.613 OA
ATOM      3  O   UNL     1     -30.223 -33.379  12.634  0.00  0.00    -0.613 OA
ENDROOT
BRANCH   1   4
ATOM      4  O   UNL     1     -29.360 -33.470  15.061  0.00  0.00    -0.248 OA
BRANCH   4   5
ATOM      5  C   UNL     1     -27.956 -33.447  15.195  0.00  0.00    +0.243 C 
BRANCH   5   6
ATOM      6  C   UNL     1     -27.595 -33.280  16.637  0.00  0.00    +0.189 C 
ATOM      7  C   UNL     1     -27.549 -31.822  17.097  0.00  0.00    +0.219 C 
ATOM      8  C   UNL     1     -26.080 -31.622  17.498  0.00  0.00    +0.211 C 
ATOM      9  C   UNL     1     -25.650 -33.048  17.896  0.00  0.00    +0.301 C 
ATOM     10  O   UNL     1     -26.261 -33.830  16.894  0.00  0.00    -0.336 OA
BRANCH   9  11
ATOM     11  N   UNL     1     -24.196 -33.374  18.016  0.00  0.00    -0.192 N 
ATOM     12  C   UNL     1     -23.594 -33.790  19.194  0.00  0.00    +0.247 A 
ATOM     13  N   UNL     1     -22.302 -34.027  19.098  0.00  0.00    -0.296 NA
ATOM     14  C   UNL     1     -22.009 -33.752  17.770  0.00  0.00    +0.104 A 
ATOM     15  C   UNL     1     -20.790 -33.805  17.001  0.00  0.00    +0.130 A 
ATOM     16  N   UNL     1     -20.837 -33.461  15.667  0.00  0.00    -0.270 NA
ATOM     17  C   UNL     1     -22.039 -33.084  15.126  0.00  0.00    +0.153 A 
ATOM     18  N   UNL     1     -23.252 -32.997  15.755  0.00  0.00    -0.271 NA
ATOM     19  C   UNL     1     -23.173 -33.346  17.077  0.00  0.00    +0.161 A 
BRANCH  15  20
ATOM     20  N   UNL     1     -19.616 -34.166  17.512  0.00  0.00    -0.315 N 
ATOM     21  H   UNL     1     -18.780 -34.201  16.910  0.00  0.00    +0.182 HD
ATOM     22  H   UNL     1     -19.541 -34.412  18.510  0.00  0.00    +0.182 HD
ENDBRANCH  15  20
ENDBRANCH   9  11
BRANCH   8  23
ATOM     23  O   UNL     1     -25.867 -30.657  18.519  0.00  0.00    -0.383 OA
ATOM     24  H   UNL     1     -24.934 -30.564  18.677  0.00  0.00    +0.210 HD
ENDBRANCH   8  23
BRANCH   7  25
ATOM     25  O   UNL     1     -28.422 -31.708  18.225  0.00  0.00    -0.267 OA
BRANCH  25  26
ATOM     26  P   UNL     1     -29.640 -30.618  18.283  0.00  0.00    +0.201 P 
ATOM     27  O   UNL     1     -29.775 -30.110  19.730  0.00  0.00    -0.554 OA
ATOM     28  O   UNL     1     -30.884 -31.380  17.846  0.00  0.00    -0.554 OA
ATOM     29  O   UNL     1     -29.256 -29.485  17.334  0.00  0.00    -0.554 OA
ENDBRANCH  25  26
ENDBRANCH   7  25
ENDBRANCH   5   6
ENDBRANCH   4   5
ENDBRANCH   1   4
BRANCH   1  30
ATOM     30  O   UNL     1     -29.070 -31.402  13.771  0.00  0.00    -0.132 OA
BRANCH  30  31
ATOM     31  P   UNL     1     -28.382 -30.725  12.523  0.00  0.00    +0.297 P 
ATOM     32  O   UNL     1     -28.656 -31.572  11.339  0.00  0.00    -0.613 OA
ATOM     33  O   UNL     1     -26.980 -30.411  12.862  0.00  0.00    -0.613 OA
BRANCH  31  34
ATOM     34  O   UNL     1     -29.285 -29.392  12.291  0.00  0.00    -0.244 OA
BRANCH  34  35
ATOM     35  C   UNL     1     -29.988 -28.767  13.367  0.00  0.00    +0.197 C 
ATOM     36  C   UNL     1     -29.085 -27.760  14.059  0.00  0.00    +0.106 C 
ATOM     37  C   UNL     1     -29.364 -26.473  13.294  0.00  0.00    +0.272 C 
ATOM     38  O   UNL     1     -30.728 -26.532  12.930  0.00  0.00    -0.339 OA
ATOM     39  C   UNL     1     -31.135 -27.922  12.799  0.00  0.00    +0.186 C 
BRANCH  37  40
ATOM     40  N   UNL     1     -29.114 -25.246  14.123  0.00  0.00    -0.174 N 
ATOM     41  C   UNL     1     -27.976 -24.467  13.800  0.00  0.00    +0.327 A 
ATOM     42  N   UNL     1     -27.792 -23.344  14.604  0.00  0.00    -0.186 N 
ATOM     43  H   UNL     1     -26.995 -22.775  14.398  0.00  0.00    +0.226 HD
ATOM     44  C   UNL     1     -28.604 -22.924  15.675  0.00  0.00    +0.193 A 
ATOM     45  C   UNL     1     -29.769 -23.773  15.951  0.00  0.00    +0.022 A 
ATOM     46  C   UNL     1     -30.717 -23.446  17.061  0.00  0.00    +0.045 C 
ATOM     47  O   UNL     1     -28.286 -21.906  16.294  0.00  0.00    -0.408 OA
ATOM     48  O   UNL     1     -27.216 -24.745  12.902  0.00  0.00    -0.384 OA
ATOM     49  C   UNL     1     -29.974 -24.873  15.188  0.00  0.00    +0.153 A 
ENDBRANCH  37  40
BRANCH  39  50
ATOM     50  C   UNL     1     -32.464 -28.151  13.502  0.00  0.00    +0.235 C 
BRANCH  50  51
ATOM     51  O   UNL     1     -32.518 -27.419  14.751  0.00  0.00    -0.273 OA
BRANCH  51  52
ATOM     52  P   UNL     1     -33.624 -27.761  15.921  0.00  0.00    +0.201 P 
ATOM     53  O   UNL     1     -33.034 -28.920  16.743  0.00  0.00    -0.554 OA
ATOM     54  O   UNL     1     -33.802 -26.466  16.746  0.00  0.00    -0.554 OA
ATOM     55  O   UNL     1     -34.903 -28.165  15.163  0.00  0.00    -0.554 OA
ENDBRANCH  51  52
ENDBRANCH  50  51
ENDBRANCH  39  50
ENDBRANCH  34  35
ENDBRANCH  31  34
ENDBRANCH  30  31
ENDBRANCH   1  30
TORSDOF 16
ENDMDL
MODEL 3
REMARK VINA RESULT:      -6.8      5.659     11.924
REMARK  Name = 1u1b_ligand
REMARK  17 active torsions:
REMARK  status: ('A' for Active; 'I' for Inactive)
REMARK    1  A    between atoms: PA_1  and  O5_4
REMARK    2  A    between atoms: PA_1  and  O3A_8
REMARK    3  A    between atoms: O5_4  and  C5_23
REMARK    4  A    between atoms: PB_5  and  O3A_8
REMARK    5  A    between atoms: PB_5  and  O3_38
REMARK    6  A    between atoms: PG_9  and  O3_30
REMARK    7  A    between atoms: N9A_13  and  C1_26
REMARK    8  A    between atoms: C6A_18  and  N6A_19
REMARK    9  A    between atoms: C5_23  and  C4_24
REMARK   10  A    between atoms: C2_27  and  O2_28
REMARK   11  A    between atoms: C3_29  and  O3_30
REMARK   12  A    between atoms: O5_31  and  C5_32
REMARK   13  A    between atoms: O5_31  and  PD_39
REMARK   14  A    between atoms: C5_32  and  C4_33
REMARK   15  A    between atoms: C1_35  and  N1T_43
REMARK   16  A    between atoms: C3_37  and  O3_38
REMARK   17  A    between atoms: C5T_50  and  CM5_51
REMARK                            x       y       z     vdW  Elec       q    Type
REMARK                         _______ _______ _______ _____ _____    ______ ____
ROOT
ATOM      1  P   UNL     1     -28.568 -29.869  18.944  0.00  0.00    +0.297 P 
ATOM      2  O   UNL     1     -27.301 -29.629  19.774  0.00  0.00    -0.613 OA
ATOM      3  O   UNL     1     -29.726 -30.568  19.662  0.00  0.00    -0.613 OA
ENDROOT
BRANCH   1   4
ATOM      4  O   UNL     1     -28.150 -30.658  17.625  0.00  0.00    -0.248 OA
BRANCH   4   5
ATOM      5  C   UNL     1     -28.861 -31.802  17.205  0.00  0.00    +0.243 C 
BRANCH   5   6
ATOM      6  C   UNL     1     -28.225 -32.361  15.972  0.00  0.00    +0.189 C 
ATOM      7  C   UNL     1     -28.612 -33.812  15.683  0.00  0.00    +0.219 C 
ATOM      8  C   UNL     1     -27.275 -34.563  15.786  0.00  0.00    +0.211 C 
ATOM      9  C   UNL     1     -26.254 -33.469  15.418  0.00  0.00    +0.301 C 
ATOM     10  O   UNL     1     -26.765 -32.346  16.102  0.00  0.00    -0.336 OA
BRANCH   9  11
ATOM     11  N   UNL     1     -24.806 -33.675  15.735  0.00  0.00    -0.192 N 
ATOM     12  C   UNL     1     -23.815 -33.783  14.772  0.00  0.00    +0.247 A 
ATOM     13  N   UNL     1     -22.601 -33.962  15.250  0.00  0.00    -0.296 NA
ATOM     14  C   UNL     1     -22.782 -33.979  16.625  0.00  0.00    +0.104 A 
ATOM     15  C   UNL     1     -21.874 -34.136  17.734  0.00  0.00    +0.130 A 
ATOM     16  N   UNL     1     -22.385 -34.103  19.014  0.00  0.00    -0.270 NA
ATOM     17  C   UNL     1     -23.734 -33.922  19.180  0.00  0.00    +0.153 A 
ATOM     18  N   UNL     1     -24.685 -33.764  18.210  0.00  0.00    -0.271 NA
ATOM     19  C   UNL     1     -24.146 -33.799  16.950  0.00  0.00    +0.161 A 
BRANCH  15  20
ATOM     20  N   UNL     1     -20.564 -34.315  17.590  0.00  0.00    -0.315 N 
ATOM     21  H   UNL     1     -20.038 -33.753  16.904  0.00  0.00    +0.182 HD
ATOM     22  H   UNL     1     -20.073 -35.018  18.162  0.00  0.00    +0.182 HD
ENDBRANCH  15  20
ENDBRANCH   9  11
BRANCH   8  23
ATOM     23  O   UNL     1     -27.182 -35.726  14.975  0.00  0.00    -0.383 OA
ATOM     24  H   UNL     1     -26.271 -35.990  14.904  0.00  0.00    +0.210 HD
ENDBRANCH   8  23
BRANCH   7  25
ATOM     25  O   UNL     1     -29.135 -33.852  14.352  0.00  0.00    -0.267 OA
BRANCH  25  26
ATOM     26  P   UNL     1     -30.373 -34.831  13.926  0.00  0.00    +0.201 P 
ATOM     27  O   UNL     1     -31.198 -35.156  15.185  0.00  0.00    -0.554 OA
ATOM     28  O   UNL     1     -29.720 -36.083  13.355  0.00  0.00    -0.554 OA
ATOM     29  O   UNL     1     -31.207 -34.060  12.905  0.00  0.00    -0.554 OA
ENDBRANCH  25  26
ENDBRANCH   7  25
ENDBRANCH   5   6
ENDBRANCH   4   5
ENDBRANCH   1   4
BRANCH   1  30
ATOM     30  O   UNL     1     -29.058 -28.491  18.333  0.00  0.00    -0.132 OA
BRANCH  30  31
ATOM     31  P   UNL     1     -30.300 -28.063  17.458  0.00  0.00    +0.297 P 
ATOM     32  O   UNL     1     -31.264 -29.186  17.459  0.00  0.00    -0.613 OA
ATOM     33  O   UNL     1     -29.816 -27.543  16.164  0.00  0.00    -0.613 OA
BRANCH  31  34
ATOM     34  O   UNL     1     -31.006 -26.915  18.370  0.00  0.00    -0.244 OA
BRANCH  34  35
ATOM     35  C   UNL     1     -31.773 -25.861  17.785  0.00  0.00    +0.197 C 
ATOM     36  C   UNL     1     -33.212 -25.939  18.269  0.00  0.00    +0.106 C 
ATOM     37  C   UNL     1     -33.197 -25.067  19.517  0.00  0.00    +0.272 C 
ATOM     38  O   UNL     1     -32.268 -24.035  19.253  0.00  0.00    -0.339 OA
ATOM     39  C   UNL     1     -31.267 -24.513  18.314  0.00  0.00    +0.186 C 
BRANCH  37  40
ATOM     40  N   UNL     1     -34.543 -24.472  19.818  0.00  0.00    -0.174 N 
ATOM     41  C   UNL     1     -35.237 -24.978  20.945  0.00  0.00    +0.327 A 
ATOM     42  N   UNL     1     -36.480 -24.393  21.174  0.00  0.00    -0.186 N 
ATOM     43  H   UNL     1     -36.993 -24.731  21.963  0.00  0.00    +0.226 HD
ATOM     44  C   UNL     1     -37.094 -23.378  20.414  0.00  0.00    +0.193 A 
ATOM     45  C   UNL     1     -36.317 -22.896  19.266  0.00  0.00    +0.022 A 
ATOM     46  C   UNL     1     -36.848 -21.820  18.372  0.00  0.00    +0.045 C 
ATOM     47  O   UNL     1     -38.212 -22.982  20.751  0.00  0.00    -0.408 OA
ATOM     48  O   UNL     1     -34.797 -25.850  21.657  0.00  0.00    -0.384 OA
ATOM     49  C   UNL     1     -35.106 -23.446  19.016  0.00  0.00    +0.153 A 
ENDBRANCH  37  40
BRANCH  39  50
ATOM     50  C   UNL     1     -31.033 -23.482  17.222  0.00  0.00    +0.235 C 
BRANCH  50  51
ATOM     51  O   UNL     1     -29.634 -23.440  16.844  0.00  0.00    -0.273 OA
BRANCH  51  52
ATOM     52  P   UNL     1     -29.151 -23.410  15.271  0.00  0.00    +0.201 P 
ATOM     53  O   UNL     1     -28.319 -24.686  15.053  0.00  0.00    -0.554 OA
ATOM     54  O   UNL     1     -30.439 -23.376  14.418  0.00  0.00    -0.554 OA
ATOM     55  O   UNL     1     -28.310 -22.126  15.132  0.00  0.00    -0.554 OA
ENDBRANCH  51  52
ENDBRANCH  50  51
ENDBRANCH  39  50
ENDBRANCH  34  35
ENDBRANCH  31  34
ENDBRANCH  30  31
ENDBRANCH   1  30
TORSDOF 16
ENDMDL
MODEL 4
REMARK VINA RESULT:      -6.3      4.684     10.806
REMARK  Name = 1u1b_ligand
REMARK  17 active torsions:
REMARK  status: ('A' for Active; 'I' for Inactive)
REMARK    1  A    between atoms: PA_1  and  O5_4
REMARK    2  A    between atoms: PA_1  and  O3A_8
REMARK    3  A    between atoms: O5_4  and  C5_23
REMARK    4  A    between atoms: PB_5  and  O3A_8
REMARK    5  A    between atoms: PB_5  and  O3_38
REMARK    6  A    between atoms: PG_9  and  O3_30
REMARK    7  A    between atoms: N9A_13  and  C1_26
REMARK    8  A    between atoms: C6A_18  and  N6A_19
REMARK    9  A    between atoms: C5_23  and  C4_24
REMARK   10  A    between atoms: C2_27  and  O2_28
REMARK   11  A    between atoms: C3_29  and  O3_30
REMARK   12  A    between atoms: O5_31  and  C5_32
REMARK   13  A    between atoms: O5_31  and  PD_39
REMARK   14  A    between atoms: C5_32  and  C4_33
REMARK   15  A    between atoms: C1_35  and  N1T_43
REMARK   16  A    between atoms: C3_37  and  O3_38
REMARK   17  A    between atoms: C5T_50  and  CM5_51
REMARK                            x       y       z     vdW  Elec       q    Type
REMARK                         _______ _______ _______ _____ _____    ______ ____
ROOT
ATOM      1  P   UNL     1     -31.014 -34.679  13.095  0.00  0.00    +0.297 P 
ATOM      2  O   UNL     1     -30.263 -35.994  13.336  0.00  0.00    -0.613 OA
ATOM      3  O   UNL     1     -31.540 -34.449  11.675  0.00  0.00    -0.613 OA
ENDROOT
BRANCH   1   4
ATOM      4  O   UNL     1     -30.071 -33.481  13.558  0.00  0.00    -0.248 OA
BRANCH   4   5
ATOM      5  C   UNL     1     -29.901 -33.173  14.923  0.00  0.00    +0.243 C 
BRANCH   5   6
ATOM      6  C   UNL     1     -29.056 -31.946  15.058  0.00  0.00    +0.189 C 
ATOM      7  C   UNL     1     -29.217 -31.231  16.401  0.00  0.00    +0.219 C 
ATOM      8  C   UNL     1     -29.792 -29.861  16.007  0.00  0.00    +0.211 C 
ATOM      9  C   UNL     1     -29.250 -29.676  14.576  0.00  0.00    +0.301 C 
ATOM     10  O   UNL     1     -29.416 -30.966  14.029  0.00  0.00    -0.336 OA
BRANCH   9  11
ATOM     11  N   UNL     1     -29.855 -28.637  13.687  0.00  0.00    -0.192 N 
ATOM     12  C   UNL     1     -30.941 -28.869  12.858  0.00  0.00    +0.247 A 
ATOM     13  N   UNL     1     -31.327 -27.827  12.151  0.00  0.00    -0.296 NA
ATOM     14  C   UNL     1     -30.444 -26.824  12.524  0.00  0.00    +0.104 A 
ATOM     15  C   UNL     1     -30.304 -25.443  12.134  0.00  0.00    +0.130 A 
ATOM     16  N   UNL     1     -29.298 -24.696  12.707  0.00  0.00    -0.270 NA
ATOM     17  C   UNL     1     -28.472 -25.295  13.623  0.00  0.00    +0.153 A 
ATOM     18  N   UNL     1     -28.510 -26.589  14.067  0.00  0.00    -0.271 NA
ATOM     19  C   UNL     1     -29.521 -27.304  13.481  0.00  0.00    +0.161 A 
BRANCH  15  20
ATOM     20  N   UNL     1     -31.094 -24.849  11.245  0.00  0.00    -0.315 N 
ATOM     21  H   UNL     1     -31.623 -25.414  10.564  0.00  0.00    +0.182 HD
ATOM     22  H   UNL     1     -31.178 -23.821  11.234  0.00  0.00    +0.182 HD
ENDBRANCH  15  20
ENDBRANCH   9  11
BRANCH   8  23
ATOM     23  O   UNL     1     -29.452 -28.798  16.887  0.00  0.00    -0.383 OA
ATOM     24  H   UNL     1     -29.710 -27.971  16.497  0.00  0.00    +0.210 HD
ENDBRANCH   8  23
BRANCH   7  25
ATOM     25  O   UNL     1     -27.911 -31.109  16.972  0.00  0.00    -0.267 OA
BRANCH  25  26
ATOM     26  P   UNL     1     -27.661 -31.082  18.588  0.00  0.00    +0.201 P 
ATOM     27  O   UNL     1     -26.660 -29.959  18.912  0.00  0.00    -0.554 OA
ATOM     28  O   UNL     1     -27.087 -32.451  18.930  0.00  0.00    -0.554 OA
ATOM     29  O   UNL     1     -29.019 -30.813  19.234  0.00  0.00    -0.554 OA
ENDBRANCH  25  26
ENDBRANCH   7  25
ENDBRANCH   5   6
ENDBRANCH   4   5
ENDBRANCH   1   4
BRANCH   1  30
ATOM     30  O   UNL     1     -32.198 -34.556  14.142  0.00  0.00    -0.132 OA
BRANCH  30  31
ATOM     31  P   UNL     1     -33.535 -35.361  14.380  0.00  0.00    +0.297 P 
ATOM     32  O   UNL     1     -33.412 -36.661  13.683  0.00  0.00    -0.613 OA
ATOM     33  O   UNL     1     -34.681 -34.488  14.059  0.00  0.00    -0.613 OA
BRANCH  31  34
ATOM     34  O   UNL     1     -33.455 -35.734  15.962  0.00  0.00    -0.244 OA
BRANCH  34  35
ATOM     35  C   UNL     1     -34.084 -34.923  16.955  0.00  0.00    +0.197 C 
ATOM     36  C   UNL     1     -34.984 -35.780  17.830  0.00  0.00    +0.106 C 
ATOM     37  C   UNL     1     -34.051 -36.213  18.953  0.00  0.00    +0.272 C 
ATOM     38  O   UNL     1     -33.169 -35.129  19.159  0.00  0.00    -0.339 OA
ATOM     39  C   UNL     1     -33.018 -34.385  17.919  0.00  0.00    +0.186 C 
BRANCH  37  40
ATOM     40  N   UNL     1     -34.788 -36.516  20.227  0.00  0.00    -0.174 N 
ATOM     41  C   UNL     1     -34.167 -37.405  21.138  0.00  0.00    +0.327 A 
ATOM     42  N   UNL     1     -34.896 -37.652  22.299  0.00  0.00    -0.186 N 
ATOM     43  H   UNL     1     -34.482 -38.277  22.961  0.00  0.00    +0.226 HD
ATOM     44  C   UNL     1     -36.155 -37.119  22.641  0.00  0.00    +0.193 A 
ATOM     45  C   UNL     1     -36.737 -36.201  21.655  0.00  0.00    +0.022 A 
ATOM     46  C   UNL     1     -38.070 -35.562  21.888  0.00  0.00    +0.045 C 
ATOM     47  O   UNL     1     -36.669 -37.456  23.710  0.00  0.00    -0.408 OA
ATOM     48  O   UNL     1     -33.090 -37.917  20.935  0.00  0.00    -0.384 OA
ATOM     49  C   UNL     1     -36.053 -35.942  20.516  0.00  0.00    +0.153 A 
ENDBRANCH  37  40
BRANCH  39  50
ATOM     50  C   UNL     1     -33.134 -32.892  18.182  0.00  0.00    +0.235 C 
BRANCH  50  51
ATOM     51  O   UNL     1     -34.512 -32.457  18.077  0.00  0.00    -0.273 OA
BRANCH  51  52
ATOM     52  P   UNL     1     -35.395 -32.011  19.393  0.00  0.00    +0.201 P 
ATOM     53  O   UNL     1     -35.513 -30.478  19.331  0.00  0.00    -0.554 OA
ATOM     54  O   UNL     1     -36.759 -32.726  19.268  0.00  0.00    -0.554 OA
ATOM     55  O   UNL     1     -34.579 -32.492  20.609  0.00  0.00    -0.554 OA
ENDBRANCH  51  52
ENDBRANCH  50  51
ENDBRANCH  39  50
ENDBRANCH  34  35
ENDBRANCH  31  34
ENDBRANCH  30  31
ENDBRANCH   1  30
TORSDOF 16
ENDMDL
MODEL 5
REMARK VINA RESULT:      -6.3      2.850      3.547
REMARK  Name = 1u1b_ligand
REMARK  17 active torsions:
REMARK  status: ('A' for Active; 'I' for Inactive)
REMARK    1  A    between atoms: PA_1  and  O5_4
REMARK    2  A    between atoms: PA_1  and  O3A_8
REMARK    3  A    between atoms: O5_4  and  C5_23
REMARK    4  A    between atoms: PB_5  and  O3A_8
REMARK    5  A    between atoms: PB_5  and  O3_38
REMARK    6  A    between atoms: PG_9  and  O3_30
REMARK    7  A    between atoms: N9A_13  and  C1_26
REMARK    8  A    between atoms: C6A_18  and  N6A_19
REMARK    9  A    between atoms: C5_23  and  C4_24
REMARK   10  A    between atoms: C2_27  and  O2_28
REMARK   11  A    between atoms: C3_29  and  O3_30
REMARK   12  A    between atoms: O5_31  and  C5_32
REMARK   13  A    between atoms: O5_31  and  PD_39
REMARK   14  A    between atoms: C5_32  and  C4_33
REMARK   15  A    between atoms: C1_35  and  N1T_43
REMARK   16  A    between atoms: C3_37  and  O3_38
REMARK   17  A    between atoms: C5T_50  and  CM5_51
REMARK                            x       y       z     vdW  Elec       q    Type
REMARK                         _______ _______ _______ _____ _____    ______ ____
ROOT
ATOM      1  P   UNL     1     -30.165 -31.912  17.354  0.00  0.00    +0.297 P 
ATOM      2  O   UNL     1     -30.703 -30.757  18.207  0.00  0.00    -0.613 OA
ATOM      3  O   UNL     1     -29.938 -31.611  15.869  0.00  0.00    -0.613 OA
ENDROOT
BRANCH   1   4
ATOM      4  O   UNL     1     -31.138 -33.160  17.544  0.00  0.00    -0.248 OA
BRANCH   4   5
ATOM      5  C   UNL     1     -32.448 -32.992  18.039  0.00  0.00    +0.243 C 
BRANCH   5   6
ATOM      6  C   UNL     1     -33.046 -34.332  18.332  0.00  0.00    +0.189 C 
ATOM      7  C   UNL     1     -34.431 -34.537  17.715  0.00  0.00    +0.219 C 
ATOM      8  C   UNL     1     -35.342 -34.715  18.940  0.00  0.00    +0.211 C 
ATOM      9  C   UNL     1     -34.371 -35.285  19.992  0.00  0.00    +0.301 C 
ATOM     10  O   UNL     1     -33.214 -34.508  19.778  0.00  0.00    -0.336 OA
BRANCH   9  11
ATOM     11  N   UNL     1     -34.761 -35.276  21.436  0.00  0.00    -0.192 N 
ATOM     12  C   UNL     1     -34.082 -34.565  22.413  0.00  0.00    +0.247 A 
ATOM     13  N   UNL     1     -34.579 -34.686  23.627  0.00  0.00    -0.296 NA
ATOM     14  C   UNL     1     -35.663 -35.535  23.462  0.00  0.00    +0.104 A 
ATOM     15  C   UNL     1     -36.636 -36.075  24.379  0.00  0.00    +0.130 A 
ATOM     16  N   UNL     1     -37.614 -36.911  23.884  0.00  0.00    -0.270 NA
ATOM     17  C   UNL     1     -37.622 -37.193  22.542  0.00  0.00    +0.153 A 
ATOM     18  N   UNL     1     -36.756 -36.742  21.584  0.00  0.00    -0.271 NA
ATOM     19  C   UNL     1     -35.797 -35.913  22.107  0.00  0.00    +0.161 A 
BRANCH  15  20
ATOM     20  N   UNL     1     -36.640 -35.814  25.683  0.00  0.00    -0.315 N 
ATOM     21  H   UNL     1     -35.765 -35.876  26.224  0.00  0.00    +0.182 HD
ATOM     22  H   UNL     1     -37.518 -35.550  26.153  0.00  0.00    +0.182 HD
ENDBRANCH  15  20
ENDBRANCH   9  11
BRANCH   8  23
ATOM     23  O   UNL     1     -36.485 -35.530  18.717  0.00  0.00    -0.383 OA
ATOM     24  H   UNL     1     -36.918 -35.700  19.547  0.00  0.00    +0.210 HD
ENDBRANCH   8  23
BRANCH   7  25
ATOM     25  O   UNL     1     -34.369 -35.730  16.928  0.00  0.00    -0.267 OA
BRANCH  25  26
ATOM     26  P   UNL     1     -34.217 -35.699  15.300  0.00  0.00    +0.201 P 
ATOM     27  O   UNL     1     -32.725 -35.557  14.949  0.00  0.00    -0.554 OA
ATOM     28  O   UNL     1     -35.011 -34.482  14.844  0.00  0.00    -0.554 OA
ATOM     29  O   UNL     1     -34.781 -37.022  14.785  0.00  0.00    -0.554 OA
ENDBRANCH  25  26
ENDBRANCH   7  25
ENDBRANCH   5   6
ENDBRANCH   4   5
ENDBRANCH   1   4
BRANCH   1  30
ATOM     30  O   UNL     1     -28.831 -32.465  18.008  0.00  0.00    -0.132 OA
BRANCH  30  31
ATOM     31  P   UNL     1     -27.782 -33.567  17.588  0.00  0.00    +0.297 P 
ATOM     32  O   UNL     1     -28.506 -34.622  16.843  0.00  0.00    -0.613 OA
ATOM     33  O   UNL     1     -26.993 -33.951  18.774  0.00  0.00    -0.613 OA
BRANCH  31  34
ATOM     34  O   UNL     1     -26.891 -32.807  16.459  0.00  0.00    -0.244 OA
BRANCH  34  35
ATOM     35  C   UNL     1     -25.644 -33.339  16.007  0.00  0.00    +0.197 C 
ATOM     36  C   UNL     1     -25.580 -33.288  14.490  0.00  0.00    +0.106 C 
ATOM     37  C   UNL     1     -24.953 -31.926  14.223  0.00  0.00    +0.272 C 
ATOM     38  O   UNL     1     -24.049 -31.704  15.286  0.00  0.00    -0.339 OA
ATOM     39  C   UNL     1     -24.505 -32.419  16.467  0.00  0.00    +0.186 C 
BRANCH  37  40
ATOM     40  N   UNL     1     -24.218 -31.878  12.914  0.00  0.00    -0.174 N 
ATOM     41  C   UNL     1     -24.969 -31.542  11.761  0.00  0.00    +0.327 A 
ATOM     42  N   UNL     1     -24.237 -31.517  10.576  0.00  0.00    -0.186 N 
ATOM     43  H   UNL     1     -24.742 -31.282   9.745  0.00  0.00    +0.226 HD
ATOM     44  C   UNL     1     -22.863 -31.787  10.421  0.00  0.00    +0.193 A 
ATOM     45  C   UNL     1     -22.145 -32.122  11.656  0.00  0.00    +0.022 A 
ATOM     46  C   UNL     1     -20.682 -32.433  11.638  0.00  0.00    +0.045 C 
ATOM     47  O   UNL     1     -22.375 -31.732   9.290  0.00  0.00    -0.408 OA
ATOM     48  O   UNL     1     -26.152 -31.296  11.790  0.00  0.00    -0.384 OA
ATOM     49  C   UNL     1     -22.830 -32.157  12.823  0.00  0.00    +0.153 A 
ENDBRANCH  37  40
BRANCH  39  50
ATOM     50  C   UNL     1     -23.347 -33.163  17.114  0.00  0.00    +0.235 C 
BRANCH  50  51
ATOM     51  O   UNL     1     -22.322 -33.469  16.137  0.00  0.00    -0.273 OA
BRANCH  51  52
ATOM     52  P   UNL     1     -20.875 -34.130  16.560  0.00  0.00    +0.201 P 
ATOM     53  O   UNL     1     -21.063 -34.702  17.976  0.00  0.00    -0.554 OA
ATOM     54  O   UNL     1     -20.567 -35.217  15.506  0.00  0.00    -0.554 OA
ATOM     55  O   UNL     1     -19.871 -32.962  16.523  0.00  0.00    -0.554 OA
ENDBRANCH  51  52
ENDBRANCH  50  51
ENDBRANCH  39  50
ENDBRANCH  34  35
ENDBRANCH  31  34
ENDBRANCH  30  31
ENDBRANCH   1  30
TORSDOF 16
ENDMDL
MODEL 6
REMARK VINA RESULT:      -6.1      5.625      8.123
REMARK  Name = 1u1b_ligand
REMARK  17 active torsions:
REMARK  status: ('A' for Active; 'I' for Inactive)
REMARK    1  A    between atoms: PA_1  and  O5_4
REMARK    2  A    between atoms: PA_1  and  O3A_8
REMARK    3  A    between atoms: O5_4  and  C5_23
REMARK    4  A    between atoms: PB_5  and  O3A_8
REMARK    5  A    between atoms: PB_5  and  O3_38
REMARK    6  A    between atoms: PG_9  and  O3_30
REMARK    7  A    between atoms: N9A_13  and  C1_26
REMARK    8  A    between atoms: C6A_18  and  N6A_19
REMARK    9  A    between atoms: C5_23  and  C4_24
REMARK   10  A    between atoms: C2_27  and  O2_28
REMARK   11  A    between atoms: C3_29  and  O3_30
REMARK   12  A    between atoms: O5_31  and  C5_32
REMARK   13  A    between atoms: O5_31  and  PD_39
REMARK   14  A    between atoms: C5_32  and  C4_33
REMARK   15  A    between atoms: C1_35  and  N1T_43
REMARK   16  A    between atoms: C3_37  and  O3_38
REMARK   17  A    between atoms: C5T_50  and  CM5_51
REMARK                            x       y       z     vdW  Elec       q    Type
REMARK                         _______ _______ _______ _____ _____    ______ ____
ROOT
ATOM      1  P   UNL     1     -29.997 -29.836  16.055  0.00  0.00    +0.297 P 
ATOM      2  O   UNL     1     -29.119 -30.521  15.002  0.00  0.00    -0.613 OA
ATOM      3  O   UNL     1     -31.505 -30.080  15.944  0.00  0.00    -0.613 OA
ENDROOT
BRANCH   1   4
ATOM      4  O   UNL     1     -29.665 -28.278  16.035  0.00  0.00    -0.248 OA
BRANCH   4   5
ATOM      5  C   UNL     1     -30.283 -27.390  16.940  0.00  0.00    +0.243 C 
BRANCH   5   6
ATOM      6  C   UNL     1     -30.947 -26.285  16.181  0.00  0.00    +0.189 C 
ATOM      7  C   UNL     1     -30.172 -24.966  16.208  0.00  0.00    +0.219 C 
ATOM      8  C   UNL     1     -31.129 -24.008  16.935  0.00  0.00    +0.211 C 
ATOM      9  C   UNL     1     -32.509 -24.613  16.613  0.00  0.00    +0.301 C 
ATOM     10  O   UNL     1     -32.265 -25.996  16.755  0.00  0.00    -0.336 OA
BRANCH   9  11
ATOM     11  N   UNL     1     -33.702 -24.197  17.414  0.00  0.00    -0.192 N 
ATOM     12  C   UNL     1     -34.643 -23.280  16.974  0.00  0.00    +0.247 A 
ATOM     13  N   UNL     1     -35.621 -23.043  17.824  0.00  0.00    -0.296 NA
ATOM     14  C   UNL     1     -35.321 -23.851  18.911  0.00  0.00    +0.104 A 
ATOM     15  C   UNL     1     -35.973 -24.075  20.178  0.00  0.00    +0.130 A 
ATOM     16  N   UNL     1     -35.404 -24.967  21.063  0.00  0.00    -0.270 NA
ATOM     17  C   UNL     1     -34.245 -25.604  20.702  0.00  0.00    +0.153 A 
ATOM     18  N   UNL     1     -33.542 -25.471  19.535  0.00  0.00    -0.271 NA
ATOM     19  C   UNL     1     -34.132 -24.580  18.678  0.00  0.00    +0.161 A 
BRANCH  15  20
ATOM     20  N   UNL     1     -37.095 -23.463  20.544  0.00  0.00    -0.315 N 
ATOM     21  H   UNL     1     -37.142 -22.434  20.554  0.00  0.00    +0.182 HD
ATOM     22  H   UNL     1     -37.919 -24.018  20.818  0.00  0.00    +0.182 HD
ENDBRANCH  15  20
ENDBRANCH   9  11
BRANCH   8  23
ATOM     23  O   UNL     1     -31.003 -22.643  16.558  0.00  0.00    -0.383 OA
ATOM     24  H   UNL     1     -30.164 -22.509  16.133  0.00  0.00    +0.210 HD
ENDBRANCH   8  23
BRANCH   7  25
ATOM     25  O   UNL     1     -29.965 -24.571  14.849  0.00  0.00    -0.267 OA
BRANCH  25  26
ATOM     26  P   UNL     1     -28.546 -24.814  14.073  0.00  0.00    +0.201 P 
ATOM     27  O   UNL     1     -28.707 -24.374  12.606  0.00  0.00    -0.554 OA
ATOM     28  O   UNL     1     -28.280 -26.310  14.176  0.00  0.00    -0.554 OA
ATOM     29  O   UNL     1     -27.505 -23.960  14.793  0.00  0.00    -0.554 OA
ENDBRANCH  25  26
ENDBRANCH   7  25
ENDBRANCH   5   6
ENDBRANCH   4   5
ENDBRANCH   1   4
BRANCH   1  30
ATOM     30  O   UNL     1     -29.485 -30.238  17.501  0.00  0.00    -0.132 OA
BRANCH  30  31
ATOM     31  P   UNL     1     -28.813 -31.534  18.101  0.00  0.00    +0.297 P 
ATOM     32  O   UNL     1     -29.435 -32.710  17.452  0.00  0.00    -0.613 OA
ATOM     33  O   UNL     1     -28.833 -31.442  19.574  0.00  0.00    -0.613 OA
BRANCH  31  34
ATOM     34  O   UNL     1     -27.307 -31.477  17.490  0.00  0.00    -0.244 OA
BRANCH  34  35
ATOM     35  C   UNL     1     -26.787 -32.534  16.682  0.00  0.00    +0.197 C 
ATOM     36  C   UNL     1     -25.288 -32.361  16.505  0.00  0.00    +0.106 C 
ATOM     37  C   UNL     1     -24.716 -33.146  17.679  0.00  0.00    +0.272 C 
ATOM     38  O   UNL     1     -25.596 -34.232  17.880  0.00  0.00    -0.339 OA
ATOM     39  C   UNL     1     -26.930 -33.864  17.434  0.00  0.00    +0.186 C 
BRANCH  37  40
ATOM     40  N   UNL     1     -23.331 -33.659  17.407  0.00  0.00    -0.174 N 
ATOM     41  C   UNL     1     -22.498 -33.899  18.527  0.00  0.00    +0.327 A 
ATOM     42  N   UNL     1     -21.224 -34.370  18.215  0.00  0.00    -0.186 N 
ATOM     43  H   UNL     1     -20.613 -34.548  18.987  0.00  0.00    +0.226 HD
ATOM     44  C   UNL     1     -20.703 -34.622  16.930  0.00  0.00    +0.193 A 
ATOM     45  C   UNL     1     -21.621 -34.358  15.817  0.00  0.00    +0.022 A 
ATOM     46  C   UNL     1     -21.199 -34.580  14.399  0.00  0.00    +0.045 C 
ATOM     47  O   UNL     1     -19.542 -35.027  16.833  0.00  0.00    -0.408 OA
ATOM     48  O   UNL     1     -22.851 -33.712  19.668  0.00  0.00    -0.384 OA
ATOM     49  C   UNL     1     -22.865 -33.898  16.088  0.00  0.00    +0.153 A 
ENDBRANCH  37  40
BRANCH  39  50
ATOM     50  C   UNL     1     -27.531 -34.977  16.590  0.00  0.00    +0.235 C 
BRANCH  50  51
ATOM     51  O   UNL     1     -27.138 -34.841  15.203  0.00  0.00    -0.273 OA
BRANCH  51  52
ATOM     52  P   UNL     1     -26.430 -36.069  14.366  0.00  0.00    +0.201 P 
ATOM     53  O   UNL     1     -26.243 -37.220  15.369  0.00  0.00    -0.554 OA
ATOM     54  O   UNL     1     -27.395 -36.425  13.212  0.00  0.00    -0.554 OA
ATOM     55  O   UNL     1     -25.089 -35.497  13.866  0.00  0.00    -0.554 OA
ENDBRANCH  51  52
ENDBRANCH  50  51
ENDBRANCH  39  50
ENDBRANCH  34  35
ENDBRANCH  31  34
ENDBRANCH  30  31
ENDBRANCH   1  30
TORSDOF 16
ENDMDL
MODEL 7
REMARK VINA RESULT:      -6.0      5.445      9.935
REMARK  Name = 1u1b_ligand
REMARK  17 active torsions:
REMARK  status: ('A' for Active; 'I' for Inactive)
REMARK    1  A    between atoms: PA_1  and  O5_4
REMARK    2  A    between atoms: PA_1  and  O3A_8
REMARK    3  A    between atoms: O5_4  and  C5_23
REMARK    4  A    between atoms: PB_5  and  O3A_8
REMARK    5  A    between atoms: PB_5  and  O3_38
REMARK    6  A    between atoms: PG_9  and  O3_30
REMARK    7  A    between atoms: N9A_13  and  C1_26
REMARK    8  A    between atoms: C6A_18  and  N6A_19
REMARK    9  A    between atoms: C5_23  and  C4_24
REMARK   10  A    between atoms: C2_27  and  O2_28
REMARK   11  A    between atoms: C3_29  and  O3_30
REMARK   12  A    between atoms: O5_31  and  C5_32
REMARK   13  A    between atoms: O5_31  and  PD_39
REMARK   14  A    between atoms: C5_32  and  C4_33
REMARK   15  A    between atoms: C1_35  and  N1T_43
REMARK   16  A    between atoms: C3_37  and  O3_38
REMARK   17  A    between atoms: C5T_50  and  CM5_51
REMARK                            x       y       z     vdW  Elec       q    Type
REMARK                         _______ _______ _______ _____ _____    ______ ____
ROOT
ATOM      1  P   UNL     1     -32.398 -32.285  13.628  0.00  0.00    +0.297 P 
ATOM      2  O   UNL     1     -32.598 -33.515  14.521  0.00  0.00    -0.613 OA
ATOM      3  O   UNL     1     -33.385 -32.120  12.469  0.00  0.00    -0.613 OA
ENDROOT
BRANCH   1   4
ATOM      4  O   UNL     1     -30.894 -32.298  13.102  0.00  0.00    -0.248 OA
BRANCH   4   5
ATOM      5  C   UNL     1     -29.811 -32.428  13.996  0.00  0.00    +0.243 C 
BRANCH   5   6
ATOM      6  C   UNL     1     -28.830 -33.419  13.453  0.00  0.00    +0.189 C 
ATOM      7  C   UNL     1     -29.191 -34.873  13.759  0.00  0.00    +0.219 C 
ATOM      8  C   UNL     1     -28.024 -35.352  14.635  0.00  0.00    +0.211 C 
ATOM      9  C   UNL     1     -26.867 -34.447  14.167  0.00  0.00    +0.301 C 
ATOM     10  O   UNL     1     -27.505 -33.195  14.039  0.00  0.00    -0.336 OA
BRANCH   9  11
ATOM     11  N   UNL     1     -25.633 -34.335  15.003  0.00  0.00    -0.192 N 
ATOM     12  C   UNL     1     -24.347 -34.369  14.487  0.00  0.00    +0.247 A 
ATOM     13  N   UNL     1     -23.390 -34.256  15.386  0.00  0.00    -0.296 NA
ATOM     14  C   UNL     1     -24.073 -34.140  16.588  0.00  0.00    +0.104 A 
ATOM     15  C   UNL     1     -23.637 -33.986  17.954  0.00  0.00    +0.130 A 
ATOM     16  N   UNL     1     -24.592 -33.896  18.944  0.00  0.00    -0.270 NA
ATOM     17  C   UNL     1     -25.915 -33.955  18.589  0.00  0.00    +0.153 A 
ATOM     18  N   UNL     1     -26.443 -34.099  17.335  0.00  0.00    -0.271 NA
ATOM     19  C   UNL     1     -25.469 -34.184  16.374  0.00  0.00    +0.161 A 
BRANCH  15  20
ATOM     20  N   UNL     1     -22.358 -33.930  18.314  0.00  0.00    -0.315 N 
ATOM     21  H   UNL     1     -21.867 -33.024  18.337  0.00  0.00    +0.182 HD
ATOM     22  H   UNL     1     -21.856 -34.793  18.570  0.00  0.00    +0.182 HD
ENDBRANCH  15  20
ENDBRANCH   9  11
BRANCH   8  23
ATOM     23  O   UNL     1     -27.737 -36.740  14.538  0.00  0.00    -0.383 OA
ATOM     24  H   UNL     1     -27.166 -36.893  13.794  0.00  0.00    +0.210 HD
ENDBRANCH   8  23
BRANCH   7  25
ATOM     25  O   UNL     1     -29.230 -35.569  12.509  0.00  0.00    -0.267 OA
BRANCH  25  26
ATOM     26  P   UNL     1     -30.631 -36.051  11.818  0.00  0.00    +0.201 P 
ATOM     27  O   UNL     1     -30.377 -37.364  11.056  0.00  0.00    -0.554 OA
ATOM     28  O   UNL     1     -31.020 -34.926  10.867  0.00  0.00    -0.554 OA
ATOM     29  O   UNL     1     -31.629 -36.258  12.955  0.00  0.00    -0.554 OA
ENDBRANCH  25  26
ENDBRANCH   7  25
ENDBRANCH   5   6
ENDBRANCH   4   5
ENDBRANCH   1   4
BRANCH   1  30
ATOM     30  O   UNL     1     -32.394 -30.981  14.530  0.00  0.00    -0.132 OA
BRANCH  30  31
ATOM     31  P   UNL     1     -33.056 -30.607  15.913  0.00  0.00    +0.297 P 
ATOM     32  O   UNL     1     -32.344 -31.354  16.974  0.00  0.00    -0.613 OA
ATOM     33  O   UNL     1     -34.519 -30.759  15.798  0.00  0.00    -0.613 OA
BRANCH  31  34
ATOM     34  O   UNL     1     -32.600 -29.059  16.125  0.00  0.00    -0.244 OA
BRANCH  34  35
ATOM     35  C   UNL     1     -31.231 -28.702  16.318  0.00  0.00    +0.197 C 
ATOM     36  C   UNL     1     -30.871 -27.527  15.425  0.00  0.00    +0.106 C 
ATOM     37  C   UNL     1     -31.179 -26.324  16.307  0.00  0.00    +0.272 C 
ATOM     38  O   UNL     1     -30.874 -26.728  17.626  0.00  0.00    -0.339 OA
ATOM     39  C   UNL     1     -31.043 -28.167  17.744  0.00  0.00    +0.186 C 
BRANCH  37  40
ATOM     40  N   UNL     1     -30.360 -25.119  15.942  0.00  0.00    -0.174 N 
ATOM     41  C   UNL     1     -30.794 -23.867  16.441  0.00  0.00    +0.327 A 
ATOM     42  N   UNL     1     -29.998 -22.785  16.068  0.00  0.00    -0.186 N 
ATOM     43  H   UNL     1     -30.281 -21.887  16.406  0.00  0.00    +0.226 HD
ATOM     44  C   UNL     1     -28.840 -22.819  15.268  0.00  0.00    +0.193 A 
ATOM     45  C   UNL     1     -28.444 -24.149  14.791  0.00  0.00    +0.022 A 
ATOM     46  C   UNL     1     -27.234 -24.332  13.931  0.00  0.00    +0.045 C 
ATOM     47  O   UNL     1     -28.260 -21.758  15.023  0.00  0.00    -0.408 OA
ATOM     48  O   UNL     1     -31.776 -23.733  17.133  0.00  0.00    -0.384 OA
ATOM     49  C   UNL     1     -29.198 -25.219  15.135  0.00  0.00    +0.153 A 
ENDBRANCH  37  40
BRANCH  39  50
ATOM     50  C   UNL     1     -29.857 -28.780  18.472  0.00  0.00    +0.235 C 
BRANCH  50  51
ATOM     51  O   UNL     1     -30.107 -30.173  18.781  0.00  0.00    -0.273 OA
BRANCH  51  52
ATOM     52  P   UNL     1     -28.913 -31.306  18.755  0.00  0.00    +0.201 P 
ATOM     53  O   UNL     1     -27.943 -30.882  17.639  0.00  0.00    -0.554 OA
ATOM     54  O   UNL     1     -28.264 -31.288  20.158  0.00  0.00    -0.554 OA
ATOM     55  O   UNL     1     -29.626 -32.636  18.445  0.00  0.00    -0.554 OA
ENDBRANCH  51  52
ENDBRANCH  50  51
ENDBRANCH  39  50
ENDBRANCH  34  35
ENDBRANCH  31  34
ENDBRANCH  30  31
ENDBRANCH   1  30
TORSDOF 16
ENDMDL
MODEL 8
REMARK VINA RESULT:      -6.0      5.461      8.516
REMARK  Name = 1u1b_ligand
REMARK  17 active torsions:
REMARK  status: ('A' for Active; 'I' for Inactive)
REMARK    1  A    between atoms: PA_1  and  O5_4
REMARK    2  A    between atoms: PA_1  and  O3A_8
REMARK    3  A    between atoms: O5_4  and  C5_23
REMARK    4  A    between atoms: PB_5  and  O3A_8
REMARK    5  A    between atoms: PB_5  and  O3_38
REMARK    6  A    between atoms: PG_9  and  O3_30
REMARK    7  A    between atoms: N9A_13  and  C1_26
REMARK    8  A    between atoms: C6A_18  and  N6A_19
REMARK    9  A    between atoms: C5_23  and  C4_24
REMARK   10  A    between atoms: C2_27  and  O2_28
REMARK   11  A    between atoms: C3_29  and  O3_30
REMARK   12  A    between atoms: O5_31  and  C5_32
REMARK   13  A    between atoms: O5_31  and  PD_39
REMARK   14  A    between atoms: C5_32  and  C4_33
REMARK   15  A    between atoms: C1_35  and  N1T_43
REMARK   16  A    between atoms: C3_37  and  O3_38
REMARK   17  A    between atoms: C5T_50  and  CM5_51
REMARK                            x       y       z     vdW  Elec       q    Type
REMARK                         _______ _______ _______ _____ _____    ______ ____
ROOT
ATOM      1  P   UNL     1     -32.716 -35.188  15.127  0.00  0.00    +0.297 P 
ATOM      2  O   UNL     1     -32.929 -36.359  16.093  0.00  0.00    -0.613 OA
ATOM      3  O   UNL     1     -33.645 -33.983  15.307  0.00  0.00    -0.613 OA
ENDROOT
BRANCH   1   4
ATOM      4  O   UNL     1     -32.796 -35.755  13.640  0.00  0.00    -0.248 OA
BRANCH   4   5
ATOM      5  C   UNL     1     -32.839 -34.886  12.530  0.00  0.00    +0.243 C 
BRANCH   5   6
ATOM      6  C   UNL     1     -31.646 -35.125  11.661  0.00  0.00    +0.189 C 
ATOM      7  C   UNL     1     -30.828 -36.354  12.061  0.00  0.00    +0.219 C 
ATOM      8  C   UNL     1     -29.465 -35.761  12.452  0.00  0.00    +0.211 C 
ATOM      9  C   UNL     1     -29.412 -34.474  11.607  0.00  0.00    +0.301 C 
ATOM     10  O   UNL     1     -30.729 -33.984  11.730  0.00  0.00    -0.336 OA
BRANCH   9  11
ATOM     11  N   UNL     1     -28.413 -33.412  11.942  0.00  0.00    -0.192 N 
ATOM     12  C   UNL     1     -27.604 -33.443  13.067  0.00  0.00    +0.247 A 
ATOM     13  N   UNL     1     -26.790 -32.414  13.187  0.00  0.00    -0.296 NA
ATOM     14  C   UNL     1     -27.067 -31.636  12.073  0.00  0.00    +0.104 A 
ATOM     15  C   UNL     1     -26.539 -30.382  11.594  0.00  0.00    +0.130 A 
ATOM     16  N   UNL     1     -27.040 -29.861  10.421  0.00  0.00    -0.270 NA
ATOM     17  C   UNL     1     -28.019 -30.556   9.757  0.00  0.00    +0.153 A 
ATOM     18  N   UNL     1     -28.592 -31.746  10.114  0.00  0.00    -0.271 NA
ATOM     19  C   UNL     1     -28.072 -32.238  11.283  0.00  0.00    +0.161 A 
BRANCH  15  20
ATOM     20  N   UNL     1     -25.593 -29.695  12.228  0.00  0.00    -0.315 N 
ATOM     21  H   UNL     1     -24.610 -30.002  12.178  0.00  0.00    +0.182 HD
ATOM     22  H   UNL     1     -25.841 -28.855  12.771  0.00  0.00    +0.182 HD
ENDBRANCH  15  20
ENDBRANCH   9  11
BRANCH   8  23
ATOM     23  O   UNL     1     -28.357 -36.626  12.244  0.00  0.00    -0.383 OA
ATOM     24  H   UNL     1     -28.000 -36.889  13.085  0.00  0.00    +0.210 HD
ENDBRANCH   8  23
BRANCH   7  25
ATOM     25  O   UNL     1     -30.724 -37.188  10.903  0.00  0.00    -0.267 OA
BRANCH  25  26
ATOM     26  P   UNL     1     -31.664 -38.509  10.688  0.00  0.00    +0.201 P 
ATOM     27  O   UNL     1     -32.691 -38.207   9.582  0.00  0.00    -0.554 OA
ATOM     28  O   UNL     1     -32.348 -38.740  12.030  0.00  0.00    -0.554 OA
ATOM     29  O   UNL     1     -30.730 -39.645  10.278  0.00  0.00    -0.554 OA
ENDBRANCH  25  26
ENDBRANCH   7  25
ENDBRANCH   5   6
ENDBRANCH   4   5
ENDBRANCH   1   4
BRANCH   1  30
ATOM     30  O   UNL     1     -31.202 -34.725  15.196  0.00  0.00    -0.132 OA
BRANCH  30  31
ATOM     31  P   UNL     1     -30.417 -33.680  16.082  0.00  0.00    +0.297 P 
ATOM     32  O   UNL     1     -30.928 -33.786  17.467  0.00  0.00    -0.613 OA
ATOM     33  O   UNL     1     -30.450 -32.366  15.411  0.00  0.00    -0.613 OA
BRANCH  31  34
ATOM     34  O   UNL     1     -28.920 -34.314  16.148  0.00  0.00    -0.244 OA
BRANCH  34  35
ATOM     35  C   UNL     1     -28.107 -34.192  17.316  0.00  0.00    +0.197 C 
ATOM     36  C   UNL     1     -26.734 -34.788  17.054  0.00  0.00    +0.106 C 
ATOM     37  C   UNL     1     -25.942 -33.597  16.531  0.00  0.00    +0.272 C 
ATOM     38  O   UNL     1     -26.446 -32.469  17.217  0.00  0.00    -0.339 OA
ATOM     39  C   UNL     1     -27.832 -32.708  17.588  0.00  0.00    +0.186 C 
BRANCH  37  40
ATOM     40  N   UNL     1     -24.468 -33.729  16.787  0.00  0.00    -0.174 N 
ATOM     41  C   UNL     1     -24.056 -33.880  18.134  0.00  0.00    +0.327 A 
ATOM     42  N   UNL     1     -22.679 -33.994  18.312  0.00  0.00    -0.186 N 
ATOM     43  H   UNL     1     -22.358 -34.102  19.254  0.00  0.00    +0.226 HD
ATOM     44  C   UNL     1     -21.688 -33.973  17.310  0.00  0.00    +0.193 A 
ATOM     45  C   UNL     1     -22.185 -33.820  15.938  0.00  0.00    +0.022 A 
ATOM     46  C   UNL     1     -21.244 -33.781  14.776  0.00  0.00    +0.045 C 
ATOM     47  O   UNL     1     -20.506 -34.073  17.646  0.00  0.00    -0.408 OA
ATOM     48  O   UNL     1     -24.828 -33.907  19.064  0.00  0.00    -0.384 OA
ATOM     49  C   UNL     1     -23.519 -33.705  15.733  0.00  0.00    +0.153 A 
ENDBRANCH  37  40
BRANCH  39  50
ATOM     50  C   UNL     1     -28.068 -32.301  19.034  0.00  0.00    +0.235 C 
BRANCH  50  51
ATOM     51  O   UNL     1     -28.940 -31.146  19.108  0.00  0.00    -0.273 OA
BRANCH  51  52
ATOM     52  P   UNL     1     -28.369 -29.634  19.418  0.00  0.00    +0.201 P 
ATOM     53  O   UNL     1     -29.158 -28.681  18.503  0.00  0.00    -0.554 OA
ATOM     54  O   UNL     1     -28.619 -29.372  20.920  0.00  0.00    -0.554 OA
ATOM     55  O   UNL     1     -26.870 -29.687  19.064  0.00  0.00    -0.554 OA
ENDBRANCH  51  52
ENDBRANCH  50  51
ENDBRANCH  39  50
ENDBRANCH  34  35
ENDBRANCH  31  34
ENDBRANCH  30  31
ENDBRANCH   1  30
TORSDOF 16
ENDMDL
MODEL 9
REMARK VINA RESULT:      -5.9      5.427      9.857
REMARK  Name = 1u1b_ligand
REMARK  17 active torsions:
REMARK  status: ('A' for Active; 'I' for Inactive)
REMARK    1  A    between atoms: PA_1  and  O5_4
REMARK    2  A    between atoms: PA_1  and  O3A_8
REMARK    3  A    between atoms: O5_4  and  C5_23
REMARK    4  A    between atoms: PB_5  and  O3A_8
REMARK    5  A    between atoms: PB_5  and  O3_38
REMARK    6  A    between atoms: PG_9  and  O3_30
REMARK    7  A    between atoms: N9A_13  and  C1_26
REMARK    8  A    between atoms: C6A_18  and  N6A_19
REMARK    9  A    between atoms: C5_23  and  C4_24
REMARK   10  A    between atoms: C2_27  and  O2_28
REMARK   11  A    between atoms: C3_29  and  O3_30
REMARK   12  A    between atoms: O5_31  and  C5_32
REMARK   13  A    between atoms: O5_31  and  PD_39
REMARK   14  A    between atoms: C5_32  and  C4_33
REMARK   15  A    between atoms: C1_35  and  N1T_43
REMARK   16  A    between atoms: C3_37  and  O3_38
REMARK   17  A    between atoms: C5T_50  and  CM5_51
REMARK                            x       y       z     vdW  Elec       q    Type
REMARK                         _______ _______ _______ _____ _____    ______ ____
ROOT
ATOM      1  P   UNL     1     -21.143 -34.424  13.993  0.00  0.00    +0.297 P 
ATOM      2  O   UNL     1     -19.728 -34.012  13.573  0.00  0.00    -0.613 OA
ATOM      3  O   UNL     1     -21.777 -35.574  13.204  0.00  0.00    -0.613 OA
ENDROOT
BRANCH   1   4
ATOM      4  O   UNL     1     -22.066 -33.126  13.956  0.00  0.00    -0.248 OA
BRANCH   4   5
ATOM      5  C   UNL     1     -22.308 -32.439  12.748  0.00  0.00    +0.243 C 
BRANCH   5   6
ATOM      6  C   UNL     1     -23.616 -32.883  12.174  0.00  0.00    +0.189 C 
ATOM      7  C   UNL     1     -23.556 -33.205  10.680  0.00  0.00    +0.219 C 
ATOM      8  C   UNL     1     -24.506 -32.172  10.056  0.00  0.00    +0.211 C 
ATOM      9  C   UNL     1     -25.486 -31.885  11.211  0.00  0.00    +0.301 C 
ATOM     10  O   UNL     1     -24.621 -31.826  12.323  0.00  0.00    -0.336 OA
BRANCH   9  11
ATOM     11  N   UNL     1     -26.363 -30.675  11.151  0.00  0.00    -0.192 N 
ATOM     12  C   UNL     1     -26.259 -29.604  12.024  0.00  0.00    +0.247 A 
ATOM     13  N   UNL     1     -27.123 -28.633  11.810  0.00  0.00    -0.296 NA
ATOM     14  C   UNL     1     -27.861 -29.076  10.722  0.00  0.00    +0.104 A 
ATOM     15  C   UNL     1     -28.958 -28.504   9.981  0.00  0.00    +0.130 A 
ATOM     16  N   UNL     1     -29.481 -29.218   8.924  0.00  0.00    -0.270 NA
ATOM     17  C   UNL     1     -28.938 -30.440   8.621  0.00  0.00    +0.153 A 
ATOM     18  N   UNL     1     -27.904 -31.078   9.250  0.00  0.00    -0.271 NA
ATOM     19  C   UNL     1     -27.405 -30.344  10.294  0.00  0.00    +0.161 A 
BRANCH  15  20
ATOM     20  N   UNL     1     -29.498 -27.323  10.264  0.00  0.00    -0.315 N 
ATOM     21  H   UNL     1     -28.997 -26.455  10.022  0.00  0.00    +0.182 HD
ATOM     22  H   UNL     1     -30.417 -27.273  10.727  0.00  0.00    +0.182 HD
ENDBRANCH  15  20
ENDBRANCH   9  11
BRANCH   8  23
ATOM     23  O   UNL     1     -25.144 -32.596   8.859  0.00  0.00    -0.383 OA
ATOM     24  H   UNL     1     -24.970 -33.520   8.719  0.00  0.00    +0.210 HD
ENDBRANCH   8  23
BRANCH   7  25
ATOM     25  O   UNL     1     -24.049 -34.538  10.517  0.00  0.00    -0.267 OA
BRANCH  25  26
ATOM     26  P   UNL     1     -23.452 -35.561   9.388  0.00  0.00    +0.201 P 
ATOM     27  O   UNL     1     -23.042 -34.742   8.151  0.00  0.00    -0.554 OA
ATOM     28  O   UNL     1     -24.593 -36.517   9.066  0.00  0.00    -0.554 OA
ATOM     29  O   UNL     1     -22.243 -36.248  10.020  0.00  0.00    -0.554 OA
ENDBRANCH  25  26
ENDBRANCH   7  25
ENDBRANCH   5   6
ENDBRANCH   4   5
ENDBRANCH   1   4
BRANCH   1  30
ATOM     30  O   UNL     1     -21.150 -34.758  15.543  0.00  0.00    -0.132 OA
BRANCH  30  31
ATOM     31  P   UNL     1     -21.484 -33.923  16.840  0.00  0.00    +0.297 P 
ATOM     32  O   UNL     1     -21.553 -32.496  16.455  0.00  0.00    -0.613 OA
ATOM     33  O   UNL     1     -20.558 -34.324  17.917  0.00  0.00    -0.613 OA
BRANCH  31  34
ATOM     34  O   UNL     1     -23.026 -34.339  17.151  0.00  0.00    -0.244 OA
BRANCH  34  35
ATOM     35  C   UNL     1     -24.120 -33.519  16.737  0.00  0.00    +0.197 C 
ATOM     36  C   UNL     1     -24.825 -34.156  15.552  0.00  0.00    +0.106 C 
ATOM     37  C   UNL     1     -25.888 -35.023  16.215  0.00  0.00    +0.272 C 
ATOM     38  O   UNL     1     -26.284 -34.322  17.376  0.00  0.00    -0.339 OA
ATOM     39  C   UNL     1     -25.182 -33.497  17.844  0.00  0.00    +0.186 C 
BRANCH  37  40
ATOM     40  N   UNL     1     -27.079 -35.251  15.329  0.00  0.00    -0.174 N 
ATOM     41  C   UNL     1     -27.155 -36.494  14.655  0.00  0.00    +0.327 A 
ATOM     42  N   UNL     1     -28.279 -36.649  13.845  0.00  0.00    -0.186 N 
ATOM     43  H   UNL     1     -28.359 -37.518  13.356  0.00  0.00    +0.226 HD
ATOM     44  C   UNL     1     -29.312 -35.714  13.639  0.00  0.00    +0.193 A 
ATOM     45  C   UNL     1     -29.173 -34.451  14.373  0.00  0.00    +0.022 A 
ATOM     46  C   UNL     1     -30.197 -33.368  14.247  0.00  0.00    +0.045 C 
ATOM     47  O   UNL     1     -30.232 -36.010  12.873  0.00  0.00    -0.408 OA
ATOM     48  O   UNL     1     -26.318 -37.360  14.763  0.00  0.00    -0.384 OA
ATOM     49  C   UNL     1     -28.091 -34.270  15.166  0.00  0.00    +0.153 A 
ENDBRANCH  37  40
BRANCH  39  50
ATOM     50  C   UNL     1     -25.676 -32.099  18.183  0.00  0.00    +0.235 C 
BRANCH  50  51
ATOM     51  O   UNL     1     -27.097 -31.980  17.926  0.00  0.00    -0.273 OA
BRANCH  51  52
ATOM     52  P   UNL     1     -27.996 -30.738  18.527  0.00  0.00    +0.201 P 
ATOM     53  O   UNL     1     -28.890 -31.346  19.622  0.00  0.00    -0.554 OA
ATOM     54  O   UNL     1     -26.993 -29.697  19.074  0.00  0.00    -0.554 OA
ATOM     55  O   UNL     1     -28.808 -30.211  17.327  0.00  0.00    -0.554 OA
ENDBRANCH  51  52
ENDBRANCH  50  51
ENDBRANCH  39  50
ENDBRANCH  34  35
ENDBRANCH  31  34
ENDBRANCH  30  31
ENDBRANCH   1  30
TORSDOF 16
ENDMDL
