MODEL 1
REMARK VINA RESULT:      -8.9      0.000      0.000
REMARK  Name = LIGAND
REMARK  7 active torsions:
REMARK  status: ('A' for Active; 'I' for Inactive)
REMARK    1  A    between atoms: C_1  and  C_26
REMARK    2  A    between atoms: C_6  and  C_11
REMARK    3  A    between atoms: C_11  and  N_14
REMARK    4  A    between atoms: C_24  and  C_35
REMARK    5  A    between atoms: C_40  and  C_42
REMARK    6  A    between atoms: C_42  and  C_47
REMARK    7  A    between atoms: C_47  and  C_50
REMARK                            x       y       z     vdW  Elec       q    Type
REMARK                         _______ _______ _______ _____ _____    ______ ____
ROOT
ATOM      1  C   UNL     1      42.228 110.560  82.715  0.00  0.00    +0.022 C 
ATOM      2  C   UNL     1      41.219 110.204  81.552  0.00  0.00    +0.027 C 
ATOM      3  C   UNL     1      39.798 109.983  82.102  0.00  0.00    +0.108 C 
ATOM      4  N   UNL     1      39.297 111.148  82.899  0.00  0.00    -0.297 N 
ATOM      5  C   UNL     1      38.203 111.914  82.464  0.00  0.00    +0.248 C 
ATOM      6  O   UNL     1      37.616 111.690  81.414  0.00  0.00    -0.270 OA
ATOM      7  C   UNL     1      40.178 111.375  84.075  0.00  0.00    +0.108 C 
ATOM      8  C   UNL     1      41.625 111.751  83.570  0.00  0.00    +0.027 C 
ENDROOT
BRANCH   1   9
ATOM      9  C   UNL     1      43.655 110.810  82.184  0.00  0.00    -0.044 A 
ATOM     10  C   UNL     1      44.784 110.496  83.051  0.00  0.00    +0.004 A 
ATOM     11  C   UNL     1      46.133 110.713  82.615  0.00  0.00    +0.000 A 
ATOM     12  C   UNL     1      46.406 111.244  81.320  0.00  0.00    +0.002 A 
ATOM     13  C   UNL     1      45.312 111.569  80.430  0.00  0.00    -0.065 A 
ATOM     14  C   UNL     1      43.940 111.351  80.870  0.00  0.00    +0.005 A 
BRANCH  13  15
ATOM     15  C   UNL     1      45.599 112.136  79.064  0.00  0.00    -0.051 C 
BRANCH  15  16
ATOM     16  N   UNL     1      44.922 111.413  77.945  0.00  0.00    +0.381 N 
ATOM     17  H   UNL     1      44.444 112.051  77.327  0.00  0.00    -0.090 HD
ATOM     18  H   UNL     1      44.221 110.774  78.296  0.00  0.00    -0.090 HD
ATOM     19  H   UNL     1      45.572 110.877  77.387  0.00  0.00    -0.090 HD
ENDBRANCH  15  16
ENDBRANCH  13  15
ENDBRANCH   1   9
BRANCH   5  20
ATOM     20  C   UNL     1      37.610 113.053  83.246  0.00  0.00    +0.055 A 
ATOM     21  C   UNL     1      37.154 112.864  84.582  0.00  0.00    +0.123 A 
ATOM     22  N   UNL     1      36.590 113.829  85.332  0.00  0.00    -0.262 NA
ATOM     23  C   UNL     1      36.428 115.054  84.802  0.00  0.00    +0.114 A 
ATOM     24  C   UNL     1      36.835 115.400  83.481  0.00  0.00    -0.028 A 
ATOM     25  C   UNL     1      37.449 114.360  82.673  0.00  0.00    +0.019 A 
BRANCH  24  26
ATOM     26  C   UNL     1      36.609 116.778  82.947  0.00  0.00    +0.041 C 
BRANCH  26  27
ATOM     27  C   UNL     1      35.134 117.118  82.775  0.00  0.00    +0.040 C 
BRANCH  27  28
ATOM     28  C   UNL     1      34.266 116.092  82.089  0.00  0.00    -0.047 A 
ATOM     29  C   UNL     1      33.304 115.315  82.867  0.00  0.00    +0.003 A 
ATOM     30  C   UNL     1      32.469 114.344  82.226  0.00  0.00    +0.000 A 
ATOM     31  C   UNL     1      32.562 114.108  80.796  0.00  0.00    +0.000 A 
ATOM     32  C   UNL     1      33.505 114.867  80.017  0.00  0.00    +0.000 A 
ATOM     33  C   UNL     1      34.357 115.861  80.674  0.00  0.00    +0.003 A 
ENDBRANCH  27  28
ENDBRANCH  26  27
ENDBRANCH  24  26
ENDBRANCH   5  20
TORSDOF 7
ENDMDL
MODEL 2
REMARK VINA RESULT:      -8.7      0.682      1.138
REMARK  Name = LIGAND
REMARK  7 active torsions:
REMARK  status: ('A' for Active; 'I' for Inactive)
REMARK    1  A    between atoms: C_1  and  C_26
REMARK    2  A    between atoms: C_6  and  C_11
REMARK    3  A    between atoms: C_11  and  N_14
REMARK    4  A    between atoms: C_24  and  C_35
REMARK    5  A    between atoms: C_40  and  C_42
REMARK    6  A    between atoms: C_42  and  C_47
REMARK    7  A    between atoms: C_47  and  C_50
REMARK                            x       y       z     vdW  Elec       q    Type
REMARK                         _______ _______ _______ _____ _____    ______ ____
ROOT
ATOM      1  C   UNL     1      42.410 111.107  83.224  0.00  0.00    +0.022 C 
ATOM      2  C   UNL     1      41.310 110.448  82.302  0.00  0.00    +0.027 C 
ATOM      3  C   UNL     1      39.988 110.255  83.069  0.00  0.00    +0.108 C 
ATOM      4  N   UNL     1      39.480 111.526  83.676  0.00  0.00    -0.297 N 
ATOM      5  C   UNL     1      38.276 112.110  83.246  0.00  0.00    +0.248 C 
ATOM      6  O   UNL     1      37.594 111.631  82.350  0.00  0.00    -0.270 OA
ATOM      7  C   UNL     1      40.467 112.054  84.653  0.00  0.00    +0.108 C 
ATOM      8  C   UNL     1      41.804 112.409  83.894  0.00  0.00    +0.027 C 
ENDROOT
BRANCH   1   9
ATOM      9  C   UNL     1      43.736 111.333  82.467  0.00  0.00    -0.044 A 
ATOM     10  C   UNL     1      44.964 111.463  83.242  0.00  0.00    +0.004 A 
ATOM     11  C   UNL     1      46.226 111.681  82.595  0.00  0.00    +0.000 A 
ATOM     12  C   UNL     1      46.312 111.776  81.176  0.00  0.00    +0.002 A 
ATOM     13  C   UNL     1      45.115 111.653  80.371  0.00  0.00    -0.065 A 
ATOM     14  C   UNL     1      43.831 111.433  81.024  0.00  0.00    +0.005 A 
BRANCH  13  15
ATOM     15  C   UNL     1      45.204 111.760  78.871  0.00  0.00    -0.051 C 
BRANCH  15  16
ATOM     16  N   UNL     1      44.253 112.744  78.269  0.00  0.00    +0.381 N 
ATOM     17  H   UNL     1      44.666 113.227  77.485  0.00  0.00    -0.090 HD
ATOM     18  H   UNL     1      43.994 113.456  78.939  0.00  0.00    -0.090 HD
ATOM     19  H   UNL     1      43.403 112.306  77.944  0.00  0.00    -0.090 HD
ENDBRANCH  15  16
ENDBRANCH  13  15
ENDBRANCH   1   9
BRANCH   5  20
ATOM     20  C   UNL     1      37.676 113.347  83.855  0.00  0.00    +0.055 A 
ATOM     21  C   UNL     1      37.272 113.368  85.220  0.00  0.00    +0.123 A 
ATOM     22  N   UNL     1      36.706 114.428  85.825  0.00  0.00    -0.262 NA
ATOM     23  C   UNL     1      36.489 115.546  85.110  0.00  0.00    +0.114 A 
ATOM     24  C   UNL     1      36.839 115.682  83.735  0.00  0.00    -0.028 A 
ATOM     25  C   UNL     1      37.457 114.538  83.084  0.00  0.00    +0.019 A 
BRANCH  24  26
ATOM     26  C   UNL     1      36.554 116.947  82.994  0.00  0.00    +0.041 C 
BRANCH  26  27
ATOM     27  C   UNL     1      35.064 117.221  82.830  0.00  0.00    +0.040 C 
BRANCH  27  28
ATOM     28  C   UNL     1      34.237 116.148  82.167  0.00  0.00    -0.047 A 
ATOM     29  C   UNL     1      34.388 115.891  80.736  0.00  0.00    +0.003 A 
ATOM     30  C   UNL     1      33.614 114.870  80.098  0.00  0.00    +0.000 A 
ATOM     31  C   UNL     1      32.663 114.072  80.852  0.00  0.00    +0.000 A 
ATOM     32  C   UNL     1      32.503 114.314  82.262  0.00  0.00    +0.000 A 
ATOM     33  C   UNL     1      33.297 115.358  82.915  0.00  0.00    +0.003 A 
ENDBRANCH  27  28
ENDBRANCH  26  27
ENDBRANCH  24  26
ENDBRANCH   5  20
TORSDOF 7
ENDMDL
MODEL 3
REMARK VINA RESULT:      -8.5      2.532      3.505
REMARK  Name = LIGAND
REMARK  7 active torsions:
REMARK  status: ('A' for Active; 'I' for Inactive)
REMARK    1  A    between atoms: C_1  and  C_26
REMARK    2  A    between atoms: C_6  and  C_11
REMARK    3  A    between atoms: C_11  and  N_14
REMARK    4  A    between atoms: C_24  and  C_35
REMARK    5  A    between atoms: C_40  and  C_42
REMARK    6  A    between atoms: C_42  and  C_47
REMARK    7  A    between atoms: C_47  and  C_50
REMARK                            x       y       z     vdW  Elec       q    Type
REMARK                         _______ _______ _______ _____ _____    ______ ____
ROOT
ATOM      1  C   UNL     1      42.148 110.784  82.823  0.00  0.00    +0.022 C 
ATOM      2  C   UNL     1      41.137 110.333  81.697  0.00  0.00    +0.027 C 
ATOM      3  C   UNL     1      39.710 110.190  82.259  0.00  0.00    +0.108 C 
ATOM      4  N   UNL     1      39.227 111.436  82.937  0.00  0.00    -0.297 N 
ATOM      5  C   UNL     1      38.147 112.174  82.424  0.00  0.00    +0.248 C 
ATOM      6  O   UNL     1      37.560 111.858  81.398  0.00  0.00    -0.270 OA
ATOM      7  C   UNL     1      40.108 111.762  84.088  0.00  0.00    +0.108 C 
ATOM      8  C   UNL     1      41.563 112.063  83.555  0.00  0.00    +0.027 C 
ENDROOT
BRANCH   1   9
ATOM      9  C   UNL     1      43.581 110.957  82.276  0.00  0.00    -0.044 A 
ATOM     10  C   UNL     1      44.701 110.619  83.145  0.00  0.00    +0.004 A 
ATOM     11  C   UNL     1      46.056 110.765  82.694  0.00  0.00    +0.000 A 
ATOM     12  C   UNL     1      46.341 111.247  81.383  0.00  0.00    +0.002 A 
ATOM     13  C   UNL     1      45.256 111.594  80.491  0.00  0.00    -0.065 A 
ATOM     14  C   UNL     1      43.878 111.448  80.945  0.00  0.00    +0.005 A 
BRANCH  13  15
ATOM     15  C   UNL     1      45.556 112.110  79.108  0.00  0.00    -0.051 C 
BRANCH  15  16
ATOM     16  N   UNL     1      44.925 111.320  78.007  0.00  0.00    +0.381 N 
ATOM     17  H   UNL     1      45.404 111.458  77.130  0.00  0.00    -0.090 HD
ATOM     18  H   UNL     1      43.966 111.606  77.858  0.00  0.00    -0.090 HD
ATOM     19  H   UNL     1      44.921 110.328  78.201  0.00  0.00    -0.090 HD
ENDBRANCH  15  16
ENDBRANCH  13  15
ENDBRANCH   1   9
BRANCH   5  20
ATOM     20  C   UNL     1      37.572 113.394  83.088  0.00  0.00    +0.055 A 
ATOM     21  C   UNL     1      38.058 114.694  82.776  0.00  0.00    +0.123 A 
ATOM     22  N   UNL     1      37.611 115.827  83.348  0.00  0.00    -0.262 NA
ATOM     23  C   UNL     1      36.649 115.747  84.285  0.00  0.00    +0.114 A 
ATOM     24  C   UNL     1      36.059 114.519  84.704  0.00  0.00    -0.028 A 
ATOM     25  C   UNL     1      36.539 113.297  84.082  0.00  0.00    +0.019 A 
BRANCH  24  26
ATOM     26  C   UNL     1      35.006 114.500  85.764  0.00  0.00    +0.041 C 
BRANCH  26  27
ATOM     27  C   UNL     1      34.249 115.817  85.879  0.00  0.00    +0.040 C 
BRANCH  27  28
ATOM     28  C   UNL     1      33.328 115.981  87.063  0.00  0.00    -0.047 A 
ATOM     29  C   UNL     1      32.012 116.589  86.882  0.00  0.00    +0.003 A 
ATOM     30  C   UNL     1      31.126 116.743  87.996  0.00  0.00    +0.000 A 
ATOM     31  C   UNL     1      31.514 116.304  89.325  0.00  0.00    +0.000 A 
ATOM     32  C   UNL     1      32.808 115.703  89.518  0.00  0.00    +0.000 A 
ATOM     33  C   UNL     1      33.713 115.545  88.377  0.00  0.00    +0.003 A 
ENDBRANCH  27  28
ENDBRANCH  26  27
ENDBRANCH  24  26
ENDBRANCH   5  20
TORSDOF 7
ENDMDL
MODEL 4
REMARK VINA RESULT:      -8.5      4.363      6.711
REMARK  Name = LIGAND
REMARK  7 active torsions:
REMARK  status: ('A' for Active; 'I' for Inactive)
REMARK    1  A    between atoms: C_1  and  C_26
REMARK    2  A    between atoms: C_6  and  C_11
REMARK    3  A    between atoms: C_11  and  N_14
REMARK    4  A    between atoms: C_24  and  C_35
REMARK    5  A    between atoms: C_40  and  C_42
REMARK    6  A    between atoms: C_42  and  C_47
REMARK    7  A    between atoms: C_47  and  C_50
REMARK                            x       y       z     vdW  Elec       q    Type
REMARK                         _______ _______ _______ _____ _____    ______ ____
ROOT
ATOM      1  C   UNL     1      42.573 110.433  82.933  0.00  0.00    +0.022 C 
ATOM      2  C   UNL     1      41.355 110.902  82.044  0.00  0.00    +0.027 C 
ATOM      3  C   UNL     1      40.014 110.581  82.729  0.00  0.00    +0.108 C 
ATOM      4  N   UNL     1      39.916 111.157  84.108  0.00  0.00    -0.297 N 
ATOM      5  C   UNL     1      38.978 112.157  84.417  0.00  0.00    +0.248 C 
ATOM      6  O   UNL     1      38.213 112.623  83.584  0.00  0.00    -0.270 OA
ATOM      7  C   UNL     1      40.982 110.589  84.973  0.00  0.00    +0.108 C 
ATOM      8  C   UNL     1      42.391 111.010  84.398  0.00  0.00    +0.027 C 
ENDROOT
BRANCH   1   9
ATOM      9  C   UNL     1      43.930 110.768  82.277  0.00  0.00    -0.044 A 
ATOM     10  C   UNL     1      45.146 110.553  83.050  0.00  0.00    +0.004 A 
ATOM     11  C   UNL     1      46.436 110.852  82.495  0.00  0.00    +0.000 A 
ATOM     12  C   UNL     1      46.560 111.368  81.173  0.00  0.00    +0.002 A 
ATOM     13  C   UNL     1      45.375 111.595  80.374  0.00  0.00    -0.065 A 
ATOM     14  C   UNL     1      44.063 111.295  80.933  0.00  0.00    +0.005 A 
BRANCH  13  15
ATOM     15  C   UNL     1      45.505 112.148  78.978  0.00  0.00    -0.051 C 
BRANCH  15  16
ATOM     16  N   UNL     1      44.215 112.606  78.377  0.00  0.00    +0.381 N 
ATOM     17  H   UNL     1      44.053 113.586  78.551  0.00  0.00    -0.090 HD
ATOM     18  H   UNL     1      43.430 112.110  78.778  0.00  0.00    -0.090 HD
ATOM     19  H   UNL     1      44.187 112.465  77.377  0.00  0.00    -0.090 HD
ENDBRANCH  15  16
ENDBRANCH  13  15
ENDBRANCH   1   9
BRANCH   5  20
ATOM     20  C   UNL     1      38.782 112.731  85.793  0.00  0.00    +0.055 A 
ATOM     21  C   UNL     1      37.655 112.368  86.583  0.00  0.00    +0.123 A 
ATOM     22  N   UNL     1      37.402 112.860  87.810  0.00  0.00    -0.262 NA
ATOM     23  C   UNL     1      38.250 113.761  88.338  0.00  0.00    +0.114 A 
ATOM     24  C   UNL     1      39.422 114.222  87.672  0.00  0.00    -0.028 A 
ATOM     25  C   UNL     1      39.699 113.686  86.350  0.00  0.00    +0.019 A 
BRANCH  24  26
ATOM     26  C   UNL     1      40.313 115.239  88.309  0.00  0.00    +0.041 C 
BRANCH  26  27
ATOM     27  C   UNL     1      41.673 114.678  88.705  0.00  0.00    +0.040 C 
BRANCH  27  28
ATOM     28  C   UNL     1      41.955 114.531  90.179  0.00  0.00    -0.047 A 
ATOM     29  C   UNL     1      41.811 115.684  91.066  0.00  0.00    +0.003 A 
ATOM     30  C   UNL     1      42.068 115.556  92.469  0.00  0.00    +0.000 A 
ATOM     31  C   UNL     1      42.478 114.285  93.039  0.00  0.00    +0.000 A 
ATOM     32  C   UNL     1      42.624 113.141  92.178  0.00  0.00    +0.000 A 
ATOM     33  C   UNL     1      42.359 113.273  90.744  0.00  0.00    +0.003 A 
ENDBRANCH  27  28
ENDBRANCH  26  27
ENDBRANCH  24  26
ENDBRANCH   5  20
TORSDOF 7
ENDMDL
MODEL 5
REMARK VINA RESULT:      -8.4      0.987      1.451
REMARK  Name = LIGAND
REMARK  7 active torsions:
REMARK  status: ('A' for Active; 'I' for Inactive)
REMARK    1  A    between atoms: C_1  and  C_26
REMARK    2  A    between atoms: C_6  and  C_11
REMARK    3  A    between atoms: C_11  and  N_14
REMARK    4  A    between atoms: C_24  and  C_35
REMARK    5  A    between atoms: C_40  and  C_42
REMARK    6  A    between atoms: C_42  and  C_47
REMARK    7  A    between atoms: C_47  and  C_50
REMARK                            x       y       z     vdW  Elec       q    Type
REMARK                         _______ _______ _______ _____ _____    ______ ____
ROOT
ATOM      1  C   UNL     1      42.491 111.004  83.374  0.00  0.00    +0.022 C 
ATOM      2  C   UNL     1      41.331 110.286  82.577  0.00  0.00    +0.027 C 
ATOM      3  C   UNL     1      40.055 110.179  83.433  0.00  0.00    +0.108 C 
ATOM      4  N   UNL     1      39.596 111.506  83.956  0.00  0.00    -0.297 N 
ATOM      5  C   UNL     1      38.375 112.069  83.547  0.00  0.00    +0.248 C 
ATOM      6  O   UNL     1      37.637 111.526  82.736  0.00  0.00    -0.270 OA
ATOM      7  C   UNL     1      40.644 112.100  84.826  0.00  0.00    +0.108 C 
ATOM      8  C   UNL     1      41.939 112.368  83.963  0.00  0.00    +0.027 C 
ENDROOT
BRANCH   1   9
ATOM      9  C   UNL     1      43.772 111.143  82.526  0.00  0.00    -0.044 A 
ATOM     10  C   UNL     1      45.051 110.808  83.140  0.00  0.00    +0.004 A 
ATOM     11  C   UNL     1      46.277 110.924  82.403  0.00  0.00    +0.000 A 
ATOM     12  C   UNL     1      46.277 111.372  81.050  0.00  0.00    +0.002 A 
ATOM     13  C   UNL     1      45.027 111.716  80.406  0.00  0.00    -0.065 A 
ATOM     14  C   UNL     1      43.780 111.600  81.150  0.00  0.00    +0.005 A 
BRANCH  13  15
ATOM     15  C   UNL     1      45.026 112.196  78.978  0.00  0.00    -0.051 C 
BRANCH  15  16
ATOM     16  N   UNL     1      44.976 111.100  77.962  0.00  0.00    +0.381 N 
ATOM     17  H   UNL     1      45.653 110.379  78.161  0.00  0.00    -0.090 HD
ATOM     18  H   UNL     1      45.195 111.451  77.038  0.00  0.00    -0.090 HD
ATOM     19  H   UNL     1      44.067 110.662  77.915  0.00  0.00    -0.090 HD
ENDBRANCH  15  16
ENDBRANCH  13  15
ENDBRANCH   1   9
BRANCH   5  20
ATOM     20  C   UNL     1      37.826 113.363  84.080  0.00  0.00    +0.055 A 
ATOM     21  C   UNL     1      37.656 113.564  85.480  0.00  0.00    +0.123 A 
ATOM     22  N   UNL     1      37.147 114.683  86.027  0.00  0.00    -0.262 NA
ATOM     23  C   UNL     1      36.758 115.684  85.218  0.00  0.00    +0.114 A 
ATOM     24  C   UNL     1      36.865 115.635  83.797  0.00  0.00    -0.028 A 
ATOM     25  C   UNL     1      37.420 114.428  83.207  0.00  0.00    +0.019 A 
BRANCH  24  26
ATOM     26  C   UNL     1      36.396 116.777  82.955  0.00  0.00    +0.041 C 
BRANCH  26  27
ATOM     27  C   UNL     1      35.268 116.395  82.004  0.00  0.00    +0.040 C 
BRANCH  27  28
ATOM     28  C   UNL     1      33.980 115.914  82.623  0.00  0.00    -0.047 A 
ATOM     29  C   UNL     1      33.303 114.740  82.075  0.00  0.00    +0.003 A 
ATOM     30  C   UNL     1      32.083 114.269  82.659  0.00  0.00    +0.000 A 
ATOM     31  C   UNL     1      31.492 114.945  83.800  0.00  0.00    +0.000 A 
ATOM     32  C   UNL     1      32.148 116.102  84.351  0.00  0.00    +0.000 A 
ATOM     33  C   UNL     1      33.397 116.582  83.754  0.00  0.00    +0.003 A 
ENDBRANCH  27  28
ENDBRANCH  26  27
ENDBRANCH  24  26
ENDBRANCH   5  20
TORSDOF 7
ENDMDL
MODEL 6
REMARK VINA RESULT:      -8.4      4.172      6.432
REMARK  Name = LIGAND
REMARK  7 active torsions:
REMARK  status: ('A' for Active; 'I' for Inactive)
REMARK    1  A    between atoms: C_1  and  C_26
REMARK    2  A    between atoms: C_6  and  C_11
REMARK    3  A    between atoms: C_11  and  N_14
REMARK    4  A    between atoms: C_24  and  C_35
REMARK    5  A    between atoms: C_40  and  C_42
REMARK    6  A    between atoms: C_42  and  C_47
REMARK    7  A    between atoms: C_47  and  C_50
REMARK                            x       y       z     vdW  Elec       q    Type
REMARK                         _______ _______ _______ _____ _____    ______ ____
ROOT
ATOM      1  C   UNL     1      42.294 110.509  82.986  0.00  0.00    +0.022 C 
ATOM      2  C   UNL     1      41.144 110.788  81.940  0.00  0.00    +0.027 C 
ATOM      3  C   UNL     1      39.757 110.537  82.562  0.00  0.00    +0.108 C 
ATOM      4  N   UNL     1      39.535 111.325  83.817  0.00  0.00    -0.297 N 
ATOM      5  C   UNL     1      38.555 112.330  83.884  0.00  0.00    +0.248 C 
ATOM      6  O   UNL     1      37.852 112.630  82.929  0.00  0.00    -0.270 OA
ATOM      7  C   UNL     1      40.538 110.940  84.843  0.00  0.00    +0.108 C 
ATOM      8  C   UNL     1      41.980 111.309  84.318  0.00  0.00    +0.027 C 
ENDROOT
BRANCH   1   9
ATOM      9  C   UNL     1      43.692 110.778  82.391  0.00  0.00    -0.044 A 
ATOM     10  C   UNL     1      44.863 110.464  83.200  0.00  0.00    +0.004 A 
ATOM     11  C   UNL     1      46.189 110.698  82.703  0.00  0.00    +0.000 A 
ATOM     12  C   UNL     1      46.395 111.246  81.403  0.00  0.00    +0.002 A 
ATOM     13  C   UNL     1      45.258 111.571  80.570  0.00  0.00    -0.065 A 
ATOM     14  C   UNL     1      43.910 111.336  81.071  0.00  0.00    +0.005 A 
BRANCH  13  15
ATOM     15  C   UNL     1      45.475 112.156  79.198  0.00  0.00    -0.051 C 
BRANCH  15  16
ATOM     16  N   UNL     1      44.974 111.300  78.080  0.00  0.00    +0.381 N 
ATOM     17  H   UNL     1      45.112 110.320  78.273  0.00  0.00    -0.090 HD
ATOM     18  H   UNL     1      45.472 111.496  77.221  0.00  0.00    -0.090 HD
ATOM     19  H   UNL     1      43.990 111.441  77.901  0.00  0.00    -0.090 HD
ENDBRANCH  15  16
ENDBRANCH  13  15
ENDBRANCH   1   9
BRANCH   5  20
ATOM     20  C   UNL     1      38.236 113.111  85.129  0.00  0.00    +0.055 A 
ATOM     21  C   UNL     1      36.907 113.540  85.403  0.00  0.00    +0.123 A 
ATOM     22  N   UNL     1      36.552 114.263  86.481  0.00  0.00    -0.262 NA
ATOM     23  C   UNL     1      37.501 114.624  87.363  0.00  0.00    +0.114 A 
ATOM     24  C   UNL     1      38.875 114.271  87.230  0.00  0.00    -0.028 A 
ATOM     25  C   UNL     1      39.257 113.484  86.069  0.00  0.00    +0.019 A 
BRANCH  24  26
ATOM     26  C   UNL     1      39.881 114.720  88.239  0.00  0.00    +0.041 C 
BRANCH  26  27
ATOM     27  C   UNL     1      39.384 114.599  89.674  0.00  0.00    +0.040 C 
BRANCH  27  28
ATOM     28  C   UNL     1      40.423 114.612  90.767  0.00  0.00    -0.047 A 
ATOM     29  C   UNL     1      41.068 113.364  91.172  0.00  0.00    +0.003 A 
ATOM     30  C   UNL     1      42.062 113.364  92.202  0.00  0.00    +0.000 A 
ATOM     31  C   UNL     1      42.448 114.596  92.867  0.00  0.00    +0.000 A 
ATOM     32  C   UNL     1      41.822 115.832  92.478  0.00  0.00    +0.000 A 
ATOM     33  C   UNL     1      40.806 115.832  91.423  0.00  0.00    +0.003 A 
ENDBRANCH  27  28
ENDBRANCH  26  27
ENDBRANCH  24  26
ENDBRANCH   5  20
TORSDOF 7
ENDMDL
MODEL 7
REMARK VINA RESULT:      -8.4      2.016      2.467
REMARK  Name = LIGAND
REMARK  7 active torsions:
REMARK  status: ('A' for Active; 'I' for Inactive)
REMARK    1  A    between atoms: C_1  and  C_26
REMARK    2  A    between atoms: C_6  and  C_11
REMARK    3  A    between atoms: C_11  and  N_14
REMARK    4  A    between atoms: C_24  and  C_35
REMARK    5  A    between atoms: C_40  and  C_42
REMARK    6  A    between atoms: C_42  and  C_47
REMARK    7  A    between atoms: C_47  and  C_50
REMARK                            x       y       z     vdW  Elec       q    Type
REMARK                         _______ _______ _______ _____ _____    ______ ____
ROOT
ATOM      1  C   UNL     1      42.206 110.800  82.805  0.00  0.00    +0.022 C 
ATOM      2  C   UNL     1      41.181 110.373  81.682  0.00  0.00    +0.027 C 
ATOM      3  C   UNL     1      39.761 110.222  82.257  0.00  0.00    +0.108 C 
ATOM      4  N   UNL     1      39.288 111.456  82.964  0.00  0.00    -0.297 N 
ATOM      5  C   UNL     1      38.204 112.205  82.477  0.00  0.00    +0.248 C 
ATOM      6  O   UNL     1      37.604 111.909  81.452  0.00  0.00    -0.270 OA
ATOM      7  C   UNL     1      40.183 111.758  84.111  0.00  0.00    +0.108 C 
ATOM      8  C   UNL     1      41.632 112.066  83.567  0.00  0.00    +0.027 C 
ENDROOT
BRANCH   1   9
ATOM      9  C   UNL     1      43.633 110.981  82.245  0.00  0.00    -0.044 A 
ATOM     10  C   UNL     1      44.763 110.670  83.111  0.00  0.00    +0.004 A 
ATOM     11  C   UNL     1      46.113 110.825  82.648  0.00  0.00    +0.000 A 
ATOM     12  C   UNL     1      46.384 111.289  81.328  0.00  0.00    +0.002 A 
ATOM     13  C   UNL     1      45.288 111.609  80.438  0.00  0.00    -0.065 A 
ATOM     14  C   UNL     1      43.916 111.455  80.904  0.00  0.00    +0.005 A 
BRANCH  13  15
ATOM     15  C   UNL     1      45.573 112.107  79.045  0.00  0.00    -0.051 C 
BRANCH  15  16
ATOM     16  N   UNL     1      44.943 111.292  77.962  0.00  0.00    +0.381 N 
ATOM     17  H   UNL     1      44.105 110.831  78.284  0.00  0.00    -0.090 HD
ATOM     18  H   UNL     1      45.567 110.562  77.645  0.00  0.00    -0.090 HD
ATOM     19  H   UNL     1      44.693 111.851  77.158  0.00  0.00    -0.090 HD
ENDBRANCH  15  16
ENDBRANCH  13  15
ENDBRANCH   1   9
BRANCH   5  20
ATOM     20  C   UNL     1      37.638 113.413  83.171  0.00  0.00    +0.055 A 
ATOM     21  C   UNL     1      37.988 114.728  82.751  0.00  0.00    +0.123 A 
ATOM     22  N   UNL     1      37.543 115.853  83.340  0.00  0.00    -0.262 NA
ATOM     23  C   UNL     1      36.722 115.752  84.400  0.00  0.00    +0.114 A 
ATOM     24  C   UNL     1      36.279 114.508  84.937  0.00  0.00    -0.028 A 
ATOM     25  C   UNL     1      36.756 113.293  84.298  0.00  0.00    +0.019 A 
BRANCH  24  26
ATOM     26  C   UNL     1      35.380 114.467  86.130  0.00  0.00    +0.041 C 
BRANCH  26  27
ATOM     27  C   UNL     1      34.491 115.699  86.251  0.00  0.00    +0.040 C 
BRANCH  27  28
ATOM     28  C   UNL     1      33.076 115.579  85.740  0.00  0.00    -0.047 A 
ATOM     29  C   UNL     1      32.406 116.746  85.172  0.00  0.00    +0.003 A 
ATOM     30  C   UNL     1      31.066 116.643  84.677  0.00  0.00    +0.000 A 
ATOM     31  C   UNL     1      30.345 115.384  84.732  0.00  0.00    +0.000 A 
ATOM     32  C   UNL     1      30.993 114.225  85.288  0.00  0.00    +0.000 A 
ATOM     33  C   UNL     1      32.364 114.331  85.793  0.00  0.00    +0.003 A 
ENDBRANCH  27  28
ENDBRANCH  26  27
ENDBRANCH  24  26
ENDBRANCH   5  20
TORSDOF 7
ENDMDL
MODEL 8
REMARK VINA RESULT:      -8.4      3.553      5.748
REMARK  Name = LIGAND
REMARK  7 active torsions:
REMARK  status: ('A' for Active; 'I' for Inactive)
REMARK    1  A    between atoms: C_1  and  C_26
REMARK    2  A    between atoms: C_6  and  C_11
REMARK    3  A    between atoms: C_11  and  N_14
REMARK    4  A    between atoms: C_24  and  C_35
REMARK    5  A    between atoms: C_40  and  C_42
REMARK    6  A    between atoms: C_42  and  C_47
REMARK    7  A    between atoms: C_47  and  C_50
REMARK                            x       y       z     vdW  Elec       q    Type
REMARK                         _______ _______ _______ _____ _____    ______ ____
ROOT
ATOM      1  C   UNL     1      42.470 110.881  83.181  0.00  0.00    +0.022 C 
ATOM      2  C   UNL     1      41.288 110.598  82.172  0.00  0.00    +0.027 C 
ATOM      3  C   UNL     1      39.983 110.279  82.924  0.00  0.00    +0.108 C 
ATOM      4  N   UNL     1      39.601 111.349  83.901  0.00  0.00    -0.297 N 
ATOM      5  C   UNL     1      38.435 112.113  83.728  0.00  0.00    +0.248 C 
ATOM      6  O   UNL     1      37.685 111.966  82.772  0.00  0.00    -0.270 OA
ATOM      7  C   UNL     1      40.661 111.497  84.931  0.00  0.00    +0.108 C 
ATOM      8  C   UNL     1      41.996 111.967  84.233  0.00  0.00    +0.027 C 
ENDROOT
BRANCH   1   9
ATOM      9  C   UNL     1      43.783 111.228  82.448  0.00  0.00    -0.044 A 
ATOM     10  C   UNL     1      44.989 111.425  83.241  0.00  0.00    +0.004 A 
ATOM     11  C   UNL     1      46.239 111.756  82.617  0.00  0.00    +0.000 A 
ATOM     12  C   UNL     1      46.332 111.901  81.202  0.00  0.00    +0.002 A 
ATOM     13  C   UNL     1      45.156 111.714  80.380  0.00  0.00    -0.065 A 
ATOM     14  C   UNL     1      43.885 111.379  81.010  0.00  0.00    +0.005 A 
BRANCH  13  15
ATOM     15  C   UNL     1      45.252 111.874  78.885  0.00  0.00    -0.051 C 
BRANCH  15  16
ATOM     16  N   UNL     1      44.186 112.737  78.290  0.00  0.00    +0.381 N 
ATOM     17  H   UNL     1      43.432 112.186  77.909  0.00  0.00    -0.090 HD
ATOM     18  H   UNL     1      44.550 113.291  77.527  0.00  0.00    -0.090 HD
ATOM     19  H   UNL     1      43.787 113.374  78.966  0.00  0.00    -0.090 HD
ENDBRANCH  15  16
ENDBRANCH  13  15
ENDBRANCH   1   9
BRANCH   5  20
ATOM     20  C   UNL     1      37.960 113.155  84.702  0.00  0.00    +0.055 A 
ATOM     21  C   UNL     1      37.417 114.389  84.246  0.00  0.00    +0.123 A 
ATOM     22  N   UNL     1      36.997 115.377  85.058  0.00  0.00    -0.262 NA
ATOM     23  C   UNL     1      37.096 115.212  86.389  0.00  0.00    +0.114 A 
ATOM     24  C   UNL     1      37.615 114.033  87.000  0.00  0.00    -0.028 A 
ATOM     25  C   UNL     1      38.063 112.964  86.122  0.00  0.00    +0.019 A 
BRANCH  24  26
ATOM     26  C   UNL     1      37.714 113.921  88.486  0.00  0.00    +0.041 C 
BRANCH  26  27
ATOM     27  C   UNL     1      37.980 115.257  89.169  0.00  0.00    +0.040 C 
BRANCH  27  28
ATOM     28  C   UNL     1      39.333 115.445  89.811  0.00  0.00    -0.047 A 
ATOM     29  C   UNL     1      40.542 115.372  88.994  0.00  0.00    +0.003 A 
ATOM     30  C   UNL     1      41.831 115.556  89.589  0.00  0.00    +0.000 A 
ATOM     31  C   UNL     1      41.966 115.815  91.012  0.00  0.00    +0.000 A 
ATOM     32  C   UNL     1      40.783 115.891  91.829  0.00  0.00    +0.000 A 
ATOM     33  C   UNL     1      39.465 115.704  91.218  0.00  0.00    +0.003 A 
ENDBRANCH  27  28
ENDBRANCH  26  27
ENDBRANCH  24  26
ENDBRANCH   5  20
TORSDOF 7
ENDMDL
MODEL 9
REMARK VINA RESULT:      -8.4      3.502      5.647
REMARK  Name = LIGAND
REMARK  7 active torsions:
REMARK  status: ('A' for Active; 'I' for Inactive)
REMARK    1  A    between atoms: C_1  and  C_26
REMARK    2  A    between atoms: C_6  and  C_11
REMARK    3  A    between atoms: C_11  and  N_14
REMARK    4  A    between atoms: C_24  and  C_35
REMARK    5  A    between atoms: C_40  and  C_42
REMARK    6  A    between atoms: C_42  and  C_47
REMARK    7  A    between atoms: C_47  and  C_50
REMARK                            x       y       z     vdW  Elec       q    Type
REMARK                         _______ _______ _______ _____ _____    ______ ____
ROOT
ATOM      1  C   UNL     1      42.219 110.813  82.942  0.00  0.00    +0.022 C 
ATOM      2  C   UNL     1      41.136 110.675  81.800  0.00  0.00    +0.027 C 
ATOM      3  C   UNL     1      39.735 110.434  82.394  0.00  0.00    +0.108 C 
ATOM      4  N   UNL     1      39.334 111.489  83.379  0.00  0.00    -0.297 N 
ATOM      5  C   UNL     1      38.258 112.355  83.124  0.00  0.00    +0.248 C 
ATOM      6  O   UNL     1      37.608 112.313  82.088  0.00  0.00    -0.270 OA
ATOM      7  C   UNL     1      40.284 111.503  84.522  0.00  0.00    +0.108 C 
ATOM      8  C   UNL     1      41.720 111.889  83.994  0.00  0.00    +0.027 C 
ENDROOT
BRANCH   1   9
ATOM      9  C   UNL     1      43.628 111.079  82.370  0.00  0.00    -0.044 A 
ATOM     10  C   UNL     1      44.776 110.922  83.254  0.00  0.00    +0.004 A 
ATOM     11  C   UNL     1      46.110 111.162  82.781  0.00  0.00    +0.000 A 
ATOM     12  C   UNL     1      46.346 111.562  81.434  0.00  0.00    +0.002 A 
ATOM     13  C   UNL     1      45.232 111.730  80.526  0.00  0.00    -0.065 A 
ATOM     14  C   UNL     1      43.875 111.488  81.002  0.00  0.00    +0.005 A 
BRANCH  13  15
ATOM     15  C   UNL     1      45.480 112.160  79.104  0.00  0.00    -0.051 C 
BRANCH  15  16
ATOM     16  N   UNL     1      44.916 111.233  78.075  0.00  0.00    +0.381 N 
ATOM     17  H   UNL     1      43.916 111.140  78.168  0.00  0.00    -0.090 HD
ATOM     18  H   UNL     1      45.300 110.302  78.174  0.00  0.00    -0.090 HD
ATOM     19  H   UNL     1      45.108 111.543  77.133  0.00  0.00    -0.090 HD
ENDBRANCH  15  16
ENDBRANCH  13  15
ENDBRANCH   1   9
BRANCH   5  20
ATOM     20  C   UNL     1      37.763 113.390  84.096  0.00  0.00    +0.055 A 
ATOM     21  C   UNL     1      36.848 114.400  83.686  0.00  0.00    +0.123 A 
ATOM     22  N   UNL     1      36.383 115.372  84.492  0.00  0.00    -0.262 NA
ATOM     23  C   UNL     1      36.806 115.417  85.768  0.00  0.00    +0.114 A 
ATOM     24  C   UNL     1      37.719 114.477  86.329  0.00  0.00    -0.028 A 
ATOM     25  C   UNL     1      38.216 113.424  85.459  0.00  0.00    +0.019 A 
BRANCH  24  26
ATOM     26  C   UNL     1      38.162 114.595  87.751  0.00  0.00    +0.041 C 
BRANCH  26  27
ATOM     27  C   UNL     1      39.671 114.743  87.896  0.00  0.00    +0.040 C 
BRANCH  27  28
ATOM     28  C   UNL     1      40.193 115.186  89.240  0.00  0.00    -0.047 A 
ATOM     29  C   UNL     1      39.260 115.439  90.336  0.00  0.00    +0.003 A 
ATOM     30  C   UNL     1      39.744 115.853  91.619  0.00  0.00    +0.000 A 
ATOM     31  C   UNL     1      41.165 116.034  91.858  0.00  0.00    +0.000 A 
ATOM     32  C   UNL     1      42.095 115.788  90.788  0.00  0.00    +0.000 A 
ATOM     33  C   UNL     1      41.600 115.363  89.477  0.00  0.00    +0.003 A 
ENDBRANCH  27  28
ENDBRANCH  26  27
ENDBRANCH  24  26
ENDBRANCH   5  20
TORSDOF 7
ENDMDL
MODEL 10
REMARK VINA RESULT:      -8.4      4.401      6.733
REMARK  Name = LIGAND
REMARK  7 active torsions:
REMARK  status: ('A' for Active; 'I' for Inactive)
REMARK    1  A    between atoms: C_1  and  C_26
REMARK    2  A    between atoms: C_6  and  C_11
REMARK    3  A    between atoms: C_11  and  N_14
REMARK    4  A    between atoms: C_24  and  C_35
REMARK    5  A    between atoms: C_40  and  C_42
REMARK    6  A    between atoms: C_42  and  C_47
REMARK    7  A    between atoms: C_47  and  C_50
REMARK                            x       y       z     vdW  Elec       q    Type
REMARK                         _______ _______ _______ _____ _____    ______ ____
ROOT
ATOM      1  C   UNL     1      42.870 110.286  83.233  0.00  0.00    +0.022 C 
ATOM      2  C   UNL     1      41.571 110.455  82.351  0.00  0.00    +0.027 C 
ATOM      3  C   UNL     1      40.308 110.081  83.150  0.00  0.00    +0.108 C 
ATOM      4  N   UNL     1      40.183 110.850  84.430  0.00  0.00    -0.297 N 
ATOM      5  C   UNL     1      39.134 111.762  84.634  0.00  0.00    +0.248 C 
ATOM      6  O   UNL     1      38.285 111.993  83.783  0.00  0.00    -0.270 OA
ATOM      7  C   UNL     1      41.345 110.563  85.310  0.00  0.00    +0.108 C 
ATOM      8  C   UNL     1      42.665 111.060  84.601  0.00  0.00    +0.027 C 
ENDROOT
BRANCH   1   9
ATOM      9  C   UNL     1      44.147 110.679  82.460  0.00  0.00    -0.044 A 
ATOM     10  C   UNL     1      45.436 110.509  83.117  0.00  0.00    +0.004 A 
ATOM     11  C   UNL     1      46.657 110.862  82.450  0.00  0.00    +0.000 A 
ATOM     12  C   UNL     1      46.640 111.392  81.127  0.00  0.00    +0.002 A 
ATOM     13  C   UNL     1      45.379 111.577  80.442  0.00  0.00    -0.065 A 
ATOM     14  C   UNL     1      44.137 111.220  81.115  0.00  0.00    +0.005 A 
BRANCH  13  15
ATOM     15  C   UNL     1      45.359 112.142  79.045  0.00  0.00    -0.051 C 
BRANCH  15  16
ATOM     16  N   UNL     1      45.004 111.149  77.986  0.00  0.00    +0.381 N 
ATOM     17  H   UNL     1      44.712 110.270  78.385  0.00  0.00    -0.090 HD
ATOM     18  H   UNL     1      45.801 110.946  77.397  0.00  0.00    -0.090 HD
ATOM     19  H   UNL     1      44.258 111.477  77.389  0.00  0.00    -0.090 HD
ENDBRANCH  15  16
ENDBRANCH  13  15
ENDBRANCH   1   9
BRANCH   5  20
ATOM     20  C   UNL     1      38.913 112.516  85.916  0.00  0.00    +0.055 A 
ATOM     21  C   UNL     1      38.565 113.897  85.901  0.00  0.00    +0.123 A 
ATOM     22  N   UNL     1      38.379 114.642  87.007  0.00  0.00    -0.262 NA
ATOM     23  C   UNL     1      38.535 114.067  88.212  0.00  0.00    +0.114 A 
ATOM     24  C   UNL     1      38.880 112.696  88.392  0.00  0.00    -0.028 A 
ATOM     25  C   UNL     1      39.076 111.891  87.199  0.00  0.00    +0.019 A 
BRANCH  24  26
ATOM     26  C   UNL     1      39.056 112.125  89.762  0.00  0.00    +0.041 C 
BRANCH  26  27
ATOM     27  C   UNL     1      38.808 113.142  90.870  0.00  0.00    +0.040 C 
BRANCH  27  28
ATOM     28  C   UNL     1      40.010 113.868  91.420  0.00  0.00    -0.047 A 
ATOM     29  C   UNL     1      41.181 113.110  91.857  0.00  0.00    +0.003 A 
ATOM     30  C   UNL     1      42.331 113.787  92.374  0.00  0.00    +0.000 A 
ATOM     31  C   UNL     1      42.360 115.236  92.480  0.00  0.00    +0.000 A 
ATOM     32  C   UNL     1      41.214 115.995  92.053  0.00  0.00    +0.000 A 
ATOM     33  C   UNL     1      40.038 115.301  91.522  0.00  0.00    +0.003 A 
ENDBRANCH  27  28
ENDBRANCH  26  27
ENDBRANCH  24  26
ENDBRANCH   5  20
TORSDOF 7
ENDMDL
